694
     RDKit          2D

 67 71  0  0  1  0  0  0  0  0999 V2000
    4.9342    0.4160    0.0000 O   0  0  0  0  0  0  0  0  0  0  0  0
    3.5054    0.4325    0.0000 O   0  0  0  0  0  0  0  0  0  0  0  0
    3.7675   -2.4080    0.0000 O   0  0  0  0  0  0  0  0  0  0  0  0
    2.0958    2.0988    0.0000 O   0  0  0  0  0  0  0  0  0  0  0  0
    6.3765    0.3875    0.0000 O   0  0  0  0  0  0  0  0  0  0  0  0
    6.3765   -2.9123    0.0000 O   0  0  0  0  0  0  0  0  0  0  0  0
    2.9370   -0.9824    0.0000 O   0  0  0  0  0  0  0  0  0  0  0  0
    7.8188    0.4160    0.0000 O   0  0  0  0  0  0  0  0  0  0  0  0
    7.8188   -2.9408    0.0000 O   0  0  0  0  0  0  0  0  0  0  0  0
    9.3345    0.4516    0.0000 O   0  0  0  0  0  0  0  0  0  0  0  0
    3.5341    2.9072    0.0000 N   0  0  0  0  0  0  0  0  0  0  0  0
    4.9247   -0.4089    0.0000 C   0  0  0  0  0  0  0  0  0  0  0  0
    4.1771   -1.6920    0.0000 C   0  0  0  0  0  0  0  0  0  0  0  0
    4.1771   -0.8327    0.0000 C   0  0  0  0  0  0  0  0  0  0  0  0
    4.9247   -2.1160    0.0000 C   0  0  0  0  0  0  0  0  0  0  0  0
    5.6620   -0.8499    0.0000 C   0  0  0  0  0  0  0  0  0  0  0  0
    5.6620   -1.6749    0.0000 C   0  0  0  0  0  0  0  0  0  0  0  0
    4.2245    0.8367    0.0000 C   0  0  0  0  0  0  0  0  0  0  0  0
    4.2341    1.6616    0.0000 C   0  0  0  0  0  0  0  0  0  0  0  0
    3.5245    2.0823    0.0000 C   0  0  0  0  0  0  0  0  0  0  0  0
    2.8054    1.6781    0.0000 C   0  0  0  0  0  0  0  0  0  0  0  0
    2.7958    0.8532    0.0000 C   0  0  0  0  0  0  0  0  0  0  0  0
    6.3765   -0.4375    0.0000 C   0  0  0  0  0  0  0  0  0  0  0  0
    3.3522   -1.6953    0.0000 C   0  0  0  0  0  0  0  0  0  0  0  0
    6.3765   -2.0874    0.0000 C   0  0  0  0  0  0  0  0  0  0  0  0
    7.0910   -0.8499    0.0000 C   0  0  0  0  0  0  0  0  0  0  0  0
    7.0910   -1.6749    0.0000 C   0  0  0  0  0  0  0  0  0  0  0  0
    2.0767    0.4490    0.0000 C   0  0  0  0  0  0  0  0  0  0  0  0
    2.9425   -2.4112    0.0000 C   0  0  0  0  0  0  0  0  0  0  0  0
    7.8284   -0.4089    0.0000 C   0  0  0  0  0  0  0  0  0  0  0  0
    7.8284   -2.1160    0.0000 C   0  0  0  0  0  0  0  0  0  0  0  0
    8.5759   -0.8327    0.0000 C   0  0  0  0  0  0  0  0  0  0  0  0
    8.5759   -1.6920    0.0000 C   0  0  0  0  0  0  0  0  0  0  0  0
    9.3439   -0.3734    0.0000 C   0  0  0  0  0  0  0  0  0  0  0  0
    9.3439   -2.1515    0.0000 C   0  0  0  0  0  0  0  0  0  0  0  0
   10.1226   -0.8148    0.0000 C   0  0  0  0  0  0  0  0  0  0  0  0
   10.1226   -1.7099    0.0000 C   0  0  0  0  0  0  0  0  0  0  0  0
   10.0440    0.8722    0.0000 C   0  0  0  0  0  0  0  0  0  0  0  0
    0.0000    0.0000    0.0000 H   0  0  0  0  0  0  0  0  0  0  0  0
    0.0000    0.0000    0.0000 H   0  0  0  0  0  0  0  0  0  0  0  0
    0.0000    0.0000    0.0000 H   0  0  0  0  0  0  0  0  0  0  0  0
    0.0000    0.0000    0.0000 H   0  0  0  0  0  0  0  0  0  0  0  0
    0.0000    0.0000    0.0000 H   0  0  0  0  0  0  0  0  0  0  0  0
    0.0000    0.0000    0.0000 H   0  0  0  0  0  0  0  0  0  0  0  0
    0.0000    0.0000    0.0000 H   0  0  0  0  0  0  0  0  0  0  0  0
    0.0000    0.0000    0.0000 H   0  0  0  0  0  0  0  0  0  0  0  0
    0.0000    0.0000    0.0000 H   0  0  0  0  0  0  0  0  0  0  0  0
    0.0000    0.0000    0.0000 H   0  0  0  0  0  0  0  0  0  0  0  0
    0.0000    0.0000    0.0000 H   0  0  0  0  0  0  0  0  0  0  0  0
    0.0000    0.0000    0.0000 H   0  0  0  0  0  0  0  0  0  0  0  0
    0.0000    0.0000    0.0000 H   0  0  0  0  0  0  0  0  0  0  0  0
    0.0000    0.0000    0.0000 H   0  0  0  0  0  0  0  0  0  0  0  0
    0.0000    0.0000    0.0000 H   0  0  0  0  0  0  0  0  0  0  0  0
    0.0000    0.0000    0.0000 H   0  0  0  0  0  0  0  0  0  0  0  0
    0.0000    0.0000    0.0000 H   0  0  0  0  0  0  0  0  0  0  0  0
    0.0000    0.0000    0.0000 H   0  0  0  0  0  0  0  0  0  0  0  0
    0.0000    0.0000    0.0000 H   0  0  0  0  0  0  0  0  0  0  0  0
    0.0000    0.0000    0.0000 H   0  0  0  0  0  0  0  0  0  0  0  0
    0.0000    0.0000    0.0000 H   0  0  0  0  0  0  0  0  0  0  0  0
    0.0000    0.0000    0.0000 H   0  0  0  0  0  0  0  0  0  0  0  0
    0.0000    0.0000    0.0000 H   0  0  0  0  0  0  0  0  0  0  0  0
    0.0000    0.0000    0.0000 H   0  0  0  0  0  0  0  0  0  0  0  0
    0.0000    0.0000    0.0000 H   0  0  0  0  0  0  0  0  0  0  0  0
    0.0000    0.0000    0.0000 H   0  0  0  0  0  0  0  0  0  0  0  0
    0.0000    0.0000    0.0000 H   0  0  0  0  0  0  0  0  0  0  0  0
    0.0000    0.0000    0.0000 H   0  0  0  0  0  0  0  0  0  0  0  0
    0.0000    0.0000    0.0000 H   0  0  0  0  0  0  0  0  0  0  0  0
 12  1  1  6
 18  1  1  1
  2 18  1  0
  2 22  1  0
 13  3  1  6
 21  4  1  1
  5 23  1  0
  6 25  1  0
  7 24  2  0
  8 30  2  0
  9 31  2  0
 10 34  1  0
 10 38  1  0
 20 11  1  6
 12 14  1  0
 12 16  1  0
 13 14  1  0
 13 15  1  0
 13 24  1  0
 15 17  1  0
 16 17  2  0
 16 23  1  0
 17 25  1  0
 18 19  1  0
 19 20  1  0
 20 21  1  0
 21 22  1  0
 22 28  1  1
 23 26  2  0
 24 29  1  0
 25 27  2  0
 26 27  1  0
 26 30  1  0
 27 31  1  0
 30 32  1  0
 31 33  1  0
 32 33  2  0
 32 34  1  0
 33 35  1  0
 34 36  2  0
 35 37  2  0
 36 37  1  0
  3 39  1  0
  4 40  1  0
  5 41  1  0
  6 42  1  0
 11 43  1  0
 11 44  1  0
 12 45  1  0
 14 46  1  0
 14 47  1  0
 15 48  1  0
 15 49  1  0
 18 50  1  0
 19 51  1  0
 19 52  1  0
 20 53  1  0
 21 54  1  0
 22 55  1  0
 28 56  1  0
 28 57  1  0
 28 58  1  0
 29 59  1  0
 29 60  1  0
 29 61  1  0
 35 62  1  0
 36 63  1  0
 37 64  1  0
 38 65  1  0
 38 66  1  0
 38 67  1  0
M  END
>  <ALOGPS_LOGP>  (1) 
1.68

>  <ALOGPS_LOGS>  (1) 
-2.93

>  <ALOGPS_SOLUBILITY>  (1) 
6.27e-01 g/l

>  <DATABASE_ID>  (1) 
DB00694

>  <DATABASE_NAME>  (1) 
drugbank

>  <DRUGBANK_ID>  (1) 
DB00694

>  <DRUG_GROUPS>  (1) 
approved

>  <EXACT_MASS>  (1) 
527.179146153

>  <FORMULA>  (1) 
C27H29NO10

>  <GENERIC_NAME>  (1) 
Daunorubicin

>  <INCHI_IDENTIFIER>  (1) 
InChI=1S/C27H29NO10/c1-10-22(30)14(28)7-17(37-10)38-16-9-27(35,11(2)29)8-13-19(16)26(34)21-20(24(13)32)23(31)12-5-4-6-15(36-3)18(12)25(21)33/h4-6,10,14,16-17,22,30,32,34-35H,7-9,28H2,1-3H3/t10-,14-,16-,17-,22+,27-/m0/s1

>  <INCHI_KEY>  (1) 
STQGQHZAVUOBTE-VGBVRHCVSA-N

>  <INTERNATIONAL_BRANDS>  (1) 
Cerubidin; Cerubidine; CÃ©rubidine; Daunoblastin; Daunoblastina; Daunorrubicina; Maxidauno

>  <JCHEM_ACCEPTOR_COUNT>  (1) 
11

>  <JCHEM_AVERAGE_POLARIZABILITY>  (1) 
52.94465268518259

>  <JCHEM_BIOAVAILABILITY>  (1) 
0

>  <JCHEM_DONOR_COUNT>  (1) 
5

>  <JCHEM_FORMAL_CHARGE>  (1) 
0

>  <JCHEM_GHOSE_FILTER>  (1) 
0

>  <JCHEM_IUPAC>  (1) 
(8S,10S)-8-acetyl-10-{[(2R,4S,5S,6S)-4-amino-5-hydroxy-6-methyloxan-2-yl]oxy}-6,8,11-trihydroxy-1-methoxy-5,7,8,9,10,12-hexahydrotetracene-5,12-dione

>  <JCHEM_LOGP>  (1) 
1.7336931410305372

>  <JCHEM_MDDR_LIKE_RULE>  (1) 
0

>  <JCHEM_NUMBER_OF_RINGS>  (1) 
5

>  <JCHEM_PHYSIOLOGICAL_CHARGE>  (1) 
1

>  <JCHEM_PKA>  (1) 
11.022501103540638

>  <JCHEM_PKA_STRONGEST_ACIDIC>  (1) 
9.530939095303156

>  <JCHEM_PKA_STRONGEST_BASIC>  (1) 
8.935714482162204

>  <JCHEM_POLAR_SURFACE_AREA>  (1) 
185.84

>  <JCHEM_REFRACTIVITY>  (1) 
132.89149999999998

>  <JCHEM_ROTATABLE_BOND_COUNT>  (1) 
4

>  <JCHEM_RULE_OF_FIVE>  (1) 
0

>  <JCHEM_TRADITIONAL_IUPAC>  (1) 
daunorubicin

>  <JCHEM_VEBER_RULE>  (1) 
0

>  <MOLECULAR_WEIGHT>  (1) 
527.5199

>  <PRODUCTS>  (1) 
Cerubidine 20mg/vial; DaunoXome; Daunorubicin Hydrochloride; Daunorubicin Hydrochloride for Injection; Daunoxome Liposomal - IV 2mg/ml, 50mg/vial; Vyxeos

>  <SALTS>  (1) 
Daunorubicin citrate; Daunorubicin Hydrochloride

>  <SECONDARY_ACCESSION_NUMBERS>  (1) 
APRD00521

>  <SMILES>  (1) 
COC1=CC=CC2=C1C(=O)C1=C(O)C3=C(C[C@](O)(C[C@@H]3O[C@H]3C[C@H](N)[C@H](O)[C@H](C)O3)C(C)=O)C(O)=C1C2=O

>  <SYNONYMS>  (1) 
Daunomycin; Daunorubicin; Daunorubicina; Daunorubicine ; Daunorubicinum; Rubidomycin

$$$$
