
     RDKit          2D

119126  0  0  1  0  0  0  0  0999 V2000
   13.3011   -7.7044    0.0000 O   0  0  0  0  0  0  0  0  0  0  0  0
   14.0047   -7.2489    0.0000 C   0  0  0  0  0  0  0  0  0  0  0  0
   14.7192   -7.6614    0.0000 C   0  0  0  0  0  0  0  0  0  0  0  0
   15.4336   -7.2489    0.0000 C   0  0  0  0  0  0  0  0  0  0  0  0
   15.4336   -6.4239    0.0000 C   0  0  0  0  0  0  0  0  0  0  0  0
   14.7192   -6.0114    0.0000 C   0  0  0  0  0  0  0  0  0  0  0  0
   14.0047   -6.4239    0.0000 C   0  0  0  0  0  0  0  0  0  0  0  0
   16.1481   -7.6614    0.0000 C   0  0  0  0  0  0  0  0  0  0  0  0
   16.8626   -7.2489    0.0000 C   0  0  0  0  0  0  0  0  0  0  0  0
   16.8626   -6.4239    0.0000 C   0  0  0  0  0  0  0  0  0  0  0  0
   16.1481   -6.0114    0.0000 C   0  0  0  0  0  0  0  0  0  0  0  0
   17.5770   -6.0114    0.0000 C   0  0  0  0  0  0  0  0  0  0  0  0
   17.5770   -5.1864    0.0000 C   0  0  0  0  0  0  0  0  0  0  0  0
   16.8626   -4.7739    0.0000 C   0  0  0  0  0  0  0  0  0  0  0  0
   16.1481   -5.1864    0.0000 C   0  0  0  0  0  0  0  0  0  0  0  0
   18.3616   -6.2663    0.0000 C   0  0  0  0  0  0  0  0  0  0  0  0
   18.8466   -5.5989    0.0000 C   0  0  0  0  0  0  0  0  0  0  0  0
   18.3616   -4.9315    0.0000 C   0  0  0  0  0  0  0  0  0  0  0  0
   18.6204   -4.1342    0.0000 C   0  0  0  0  0  0  0  0  0  0  0  0
   19.4518   -4.1509    0.0000 C   0  0  0  0  0  0  0  0  0  0  0  0
   19.7255   -3.3679    0.0000 C   0  0  0  0  0  0  0  0  0  0  0  0
   19.0655   -2.8656    0.0000 O   0  0  0  0  0  0  0  0  0  0  0  0
   18.3839   -3.3380    0.0000 C   0  0  0  0  0  0  0  0  0  0  0  0
   20.5063   -3.1334    0.0000 O   0  0  0  0  0  0  0  0  0  0  0  0
   17.5770   -4.3614    0.0000 C   0  0  0  0  0  0  0  0  0  0  0  0
   17.5770   -6.8364    0.0000 O   0  0  0  0  0  0  0  0  0  0  0  0
   15.4336   -5.5989    0.0000 C   0  0  0  0  0  0  0  0  0  0  0  0
   12.5632   -7.3271    0.0000 C   0  0  0  0  0  0  0  0  0  0  0  0
   12.5632   -6.5021    0.0000 O   0  0  0  0  0  0  0  0  0  0  0  0
   11.8487   -6.0896    0.0000 C   0  0  0  0  0  0  0  0  0  0  0  0
   11.1342   -6.5021    0.0000 C   0  0  0  0  0  0  0  0  0  0  0  0
   11.1342   -7.3271    0.0000 C   0  0  0  0  0  0  0  0  0  0  0  0
   11.8487   -7.7396    0.0000 C   0  0  0  0  0  0  0  0  0  0  0  0
   10.4197   -6.0896    0.0000 O   0  0  0  0  0  0  0  0  0  0  0  0
    9.7053   -6.5021    0.0000 C   0  0  0  0  0  0  0  0  0  0  0  0
    9.7053   -7.3271    0.0000 O   0  0  0  0  0  0  0  0  0  0  0  0
   10.4197   -7.7396    0.0000 O   0  0  0  0  0  0  0  0  0  0  0  0
    8.9908   -6.0896    0.0000 C   0  0  0  0  0  0  0  0  0  0  0  0
    8.2764   -6.5021    0.0000 C   0  0  0  0  0  0  0  0  0  0  0  0
    8.2764   -7.3271    0.0000 C   0  0  0  0  0  0  0  0  0  0  0  0
    8.9908   -7.7396    0.0000 C   0  0  0  0  0  0  0  0  0  0  0  0
    7.5618   -6.0896    0.0000 O   0  0  0  0  0  0  0  0  0  0  0  0
    6.8474   -6.5021    0.0000 O   0  0  0  0  0  0  0  0  0  0  0  0
    6.8474   -7.3271    0.0000 C   0  0  0  0  0  0  0  0  0  0  0  0
    7.5618   -7.7396    0.0000 O   0  0  0  0  0  0  0  0  0  0  0  0
    6.1330   -6.0896    0.0000 C   0  0  0  0  0  0  0  0  0  0  0  0
    5.4185   -6.5021    0.0000 C   0  0  0  0  0  0  0  0  0  0  0  0
    5.4185   -7.3271    0.0000 C   0  0  0  0  0  0  0  0  0  0  0  0
    6.1330   -7.7396    0.0000 C   0  0  0  0  0  0  0  0  0  0  0  0
    4.7040   -6.0896    0.0000 O   0  0  0  0  0  0  0  0  0  0  0  0
    4.7040   -7.7396    0.0000 O   0  0  0  0  0  0  0  0  0  0  0  0
   11.8485   -5.2533    0.0000 C   0  0  0  0  0  0  0  0  0  0  0  0
    8.9906   -8.5530    0.0000 C   0  0  0  0  0  0  0  0  0  0  0  0
    6.1330   -5.2532    0.0000 C   0  0  0  0  0  0  0  0  0  0  0  0
   16.8626   -3.9480    0.0000 O   0  0  0  0  0  0  0  0  0  0  0  0
    0.0000    0.0000    0.0000 H   0  0  0  0  0  0  0  0  0  0  0  0
    0.0000    0.0000    0.0000 H   0  0  0  0  0  0  0  0  0  0  0  0
    0.0000    0.0000    0.0000 H   0  0  0  0  0  0  0  0  0  0  0  0
    0.0000    0.0000    0.0000 H   0  0  0  0  0  0  0  0  0  0  0  0
    0.0000    0.0000    0.0000 H   0  0  0  0  0  0  0  0  0  0  0  0
    0.0000    0.0000    0.0000 H   0  0  0  0  0  0  0  0  0  0  0  0
    0.0000    0.0000    0.0000 H   0  0  0  0  0  0  0  0  0  0  0  0
    0.0000    0.0000    0.0000 H   0  0  0  0  0  0  0  0  0  0  0  0
    0.0000    0.0000    0.0000 H   0  0  0  0  0  0  0  0  0  0  0  0
    0.0000    0.0000    0.0000 H   0  0  0  0  0  0  0  0  0  0  0  0
    0.0000    0.0000    0.0000 H   0  0  0  0  0  0  0  0  0  0  0  0
    0.0000    0.0000    0.0000 H   0  0  0  0  0  0  0  0  0  0  0  0
    0.0000    0.0000    0.0000 H   0  0  0  0  0  0  0  0  0  0  0  0
    0.0000    0.0000    0.0000 H   0  0  0  0  0  0  0  0  0  0  0  0
    0.0000    0.0000    0.0000 H   0  0  0  0  0  0  0  0  0  0  0  0
    0.0000    0.0000    0.0000 H   0  0  0  0  0  0  0  0  0  0  0  0
    0.0000    0.0000    0.0000 H   0  0  0  0  0  0  0  0  0  0  0  0
    0.0000    0.0000    0.0000 H   0  0  0  0  0  0  0  0  0  0  0  0
    0.0000    0.0000    0.0000 H   0  0  0  0  0  0  0  0  0  0  0  0
    0.0000    0.0000    0.0000 H   0  0  0  0  0  0  0  0  0  0  0  0
    0.0000    0.0000    0.0000 H   0  0  0  0  0  0  0  0  0  0  0  0
    0.0000    0.0000    0.0000 H   0  0  0  0  0  0  0  0  0  0  0  0
    0.0000    0.0000    0.0000 H   0  0  0  0  0  0  0  0  0  0  0  0
    0.0000    0.0000    0.0000 H   0  0  0  0  0  0  0  0  0  0  0  0
    0.0000    0.0000    0.0000 H   0  0  0  0  0  0  0  0  0  0  0  0
    0.0000    0.0000    0.0000 H   0  0  0  0  0  0  0  0  0  0  0  0
    0.0000    0.0000    0.0000 H   0  0  0  0  0  0  0  0  0  0  0  0
    0.0000    0.0000    0.0000 H   0  0  0  0  0  0  0  0  0  0  0  0
    0.0000    0.0000    0.0000 H   0  0  0  0  0  0  0  0  0  0  0  0
    0.0000    0.0000    0.0000 H   0  0  0  0  0  0  0  0  0  0  0  0
    0.0000    0.0000    0.0000 H   0  0  0  0  0  0  0  0  0  0  0  0
    0.0000    0.0000    0.0000 H   0  0  0  0  0  0  0  0  0  0  0  0
    0.0000    0.0000    0.0000 H   0  0  0  0  0  0  0  0  0  0  0  0
    0.0000    0.0000    0.0000 H   0  0  0  0  0  0  0  0  0  0  0  0
    0.0000    0.0000    0.0000 H   0  0  0  0  0  0  0  0  0  0  0  0
    0.0000    0.0000    0.0000 H   0  0  0  0  0  0  0  0  0  0  0  0
    0.0000    0.0000    0.0000 H   0  0  0  0  0  0  0  0  0  0  0  0
    0.0000    0.0000    0.0000 H   0  0  0  0  0  0  0  0  0  0  0  0
    0.0000    0.0000    0.0000 H   0  0  0  0  0  0  0  0  0  0  0  0
    0.0000    0.0000    0.0000 H   0  0  0  0  0  0  0  0  0  0  0  0
    0.0000    0.0000    0.0000 H   0  0  0  0  0  0  0  0  0  0  0  0
    0.0000    0.0000    0.0000 H   0  0  0  0  0  0  0  0  0  0  0  0
    0.0000    0.0000    0.0000 H   0  0  0  0  0  0  0  0  0  0  0  0
    0.0000    0.0000    0.0000 H   0  0  0  0  0  0  0  0  0  0  0  0
    0.0000    0.0000    0.0000 H   0  0  0  0  0  0  0  0  0  0  0  0
    0.0000    0.0000    0.0000 H   0  0  0  0  0  0  0  0  0  0  0  0
    0.0000    0.0000    0.0000 H   0  0  0  0  0  0  0  0  0  0  0  0
    0.0000    0.0000    0.0000 H   0  0  0  0  0  0  0  0  0  0  0  0
    0.0000    0.0000    0.0000 H   0  0  0  0  0  0  0  0  0  0  0  0
    0.0000    0.0000    0.0000 H   0  0  0  0  0  0  0  0  0  0  0  0
    0.0000    0.0000    0.0000 H   0  0  0  0  0  0  0  0  0  0  0  0
    0.0000    0.0000    0.0000 H   0  0  0  0  0  0  0  0  0  0  0  0
    0.0000    0.0000    0.0000 H   0  0  0  0  0  0  0  0  0  0  0  0
    0.0000    0.0000    0.0000 H   0  0  0  0  0  0  0  0  0  0  0  0
    0.0000    0.0000    0.0000 H   0  0  0  0  0  0  0  0  0  0  0  0
    0.0000    0.0000    0.0000 H   0  0  0  0  0  0  0  0  0  0  0  0
    0.0000    0.0000    0.0000 H   0  0  0  0  0  0  0  0  0  0  0  0
    0.0000    0.0000    0.0000 H   0  0  0  0  0  0  0  0  0  0  0  0
    0.0000    0.0000    0.0000 H   0  0  0  0  0  0  0  0  0  0  0  0
    0.0000    0.0000    0.0000 H   0  0  0  0  0  0  0  0  0  0  0  0
    0.0000    0.0000    0.0000 H   0  0  0  0  0  0  0  0  0  0  0  0
    0.0000    0.0000    0.0000 H   0  0  0  0  0  0  0  0  0  0  0  0
    0.0000    0.0000    0.0000 H   0  0  0  0  0  0  0  0  0  0  0  0
    0.0000    0.0000    0.0000 H   0  0  0  0  0  0  0  0  0  0  0  0
  2  1  1  1
  2  3  1  0
  3  4  1  0
  4  5  1  0
  5  6  1  0
  6  7  1  0
  2  7  1  0
  4  8  1  0
  8  9  1  0
  9 10  1  0
 10 11  1  0
  5 11  1  0
 10 12  1  0
 12 13  1  0
 13 14  1  0
 14 15  1  0
 11 15  1  0
 12 16  1  0
 16 17  1  0
 17 18  1  0
 13 18  1  0
 18 19  1  1
 19 20  2  0
 20 21  1  0
 21 22  1  0
 22 23  1  0
 19 23  1  0
 21 24  2  0
 13 25  1  1
 12 26  1  1
  5 27  1  1
 28  1  1  6
 28 29  1  0
 29 30  1  0
 30 31  1  0
 31 32  1  0
 32 33  1  0
 28 33  1  0
 31 34  1  6
 35 34  1  6
 35 36  1  0
 32 37  1  6
 35 38  1  0
 38 39  1  0
 39 40  1  0
 40 41  1  0
 36 41  1  0
 39 42  1  1
 43 44  1  0
 44 45  1  6
 40 45  1  1
 43 46  1  0
 46 47  1  0
 47 48  1  0
 48 49  1  0
 44 49  1  0
 47 50  1  6
 48 51  1  6
 30 52  1  1
 41 53  1  1
 46 54  1  1
 14 55  1  1
  2 56  1  0
  3 57  1  0
  3 58  1  0
  4 59  1  1
  6 60  1  0
  6 61  1  0
  7 62  1  0
  7 63  1  0
  8 64  1  0
  8 65  1  0
  9 66  1  0
  9 67  1  0
 10 68  1  1
 11 69  1  6
 14 70  1  0
 15 71  1  0
 15 72  1  0
 16 73  1  0
 16 74  1  0
 17 75  1  0
 17 76  1  0
 18 77  1  0
 20 78  1  0
 23 79  1  0
 23 80  1  0
 25 81  1  0
 25 82  1  0
 25 83  1  0
 26 84  1  0
 27 85  1  0
 27 86  1  0
 27 87  1  0
 28 88  1  0
 30 89  1  0
 31 90  1  0
 32 91  1  0
 33 92  1  0
 33 93  1  0
 35 94  1  0
 37 95  1  0
 38 96  1  0
 38 97  1  0
 39 98  1  0
 40 99  1  0
 41100  1  0
 42101  1  0
 44102  1  0
 46103  1  0
 47104  1  0
 48105  1  0
 49106  1  0
 49107  1  0
 50108  1  0
 51109  1  0
 52110  1  0
 52111  1  0
 52112  1  0
 53113  1  0
 53114  1  0
 53115  1  0
 54116  1  0
 54117  1  0
 54118  1  0
 55119  1  0
M  END
>  <ALOGPS_LOGP>  (1) 
1.04

>  <ALOGPS_LOGS>  (1) 
-3.79

>  <ALOGPS_SOLUBILITY>  (1) 
1.27e-01 g/l

>  <DATABASE_ID>  (1) 
DB00390

>  <DATABASE_NAME>  (1) 
drugbank

>  <DRUGBANK_ID>  (1) 
DB00390

>  <DRUG_GROUPS>  (1) 
approved

>  <EXACT_MASS>  (1) 
780.429606756

>  <FORMULA>  (1) 
C41H64O14

>  <GENERIC_NAME>  (1) 
Digoxin

>  <INCHI_IDENTIFIER>  (1) 
InChI=1S/C41H64O14/c1-19-36(47)28(42)15-34(50-19)54-38-21(3)52-35(17-30(38)44)55-37-20(2)51-33(16-29(37)43)53-24-8-10-39(4)23(13-24)6-7-26-27(39)14-31(45)40(5)25(9-11-41(26,40)48)22-12-32(46)49-18-22/h12,19-21,23-31,33-38,42-45,47-48H,6-11,13-18H2,1-5H3/t19-,20-,21-,23-,24+,25-,26-,27+,28+,29+,30+,31-,33+,34+,35+,36-,37-,38-,39+,40+,41+/m1/s1

>  <INCHI_KEY>  (1) 
LTMHDMANZUZIPE-PUGKRICDSA-N

>  <INTERNATIONAL_BRANDS>  (1) 
Agoxin; Cardiacin; Cardiogoxin; Cardioxin; Cardoxin; Celoxin; Centoxin; Digacin; Digocard-G; Digoxina; Eudigox; Lanacordin; Lanacrist; Lanicor; Lanoxicaps; Lenoxin

>  <JCHEM_ACCEPTOR_COUNT>  (1) 
13

>  <JCHEM_AVERAGE_POLARIZABILITY>  (1) 
84.80330180640148

>  <JCHEM_BIOAVAILABILITY>  (1) 
0

>  <JCHEM_DONOR_COUNT>  (1) 
6

>  <JCHEM_FORMAL_CHARGE>  (1) 
0

>  <JCHEM_GHOSE_FILTER>  (1) 
0

>  <JCHEM_IUPAC>  (1) 
4-[(1S,2S,5S,7R,10R,11S,14R,15S,16R)-5-{[(2R,4S,5S,6R)-5-{[(2S,4S,5S,6R)-5-{[(2S,4S,5S,6R)-4,5-dihydroxy-6-methyloxan-2-yl]oxy}-4-hydroxy-6-methyloxan-2-yl]oxy}-4-hydroxy-6-methyloxan-2-yl]oxy}-11,16-dihydroxy-2,15-dimethyltetracyclo[8.7.0.0²,⁷.0¹¹,¹⁵]heptadecan-14-yl]-2,5-dihydrofuran-2-one

>  <JCHEM_LOGP>  (1) 
2.366680672000001

>  <JCHEM_MDDR_LIKE_RULE>  (1) 
1

>  <JCHEM_NUMBER_OF_RINGS>  (1) 
8

>  <JCHEM_PHYSIOLOGICAL_CHARGE>  (1) 
0

>  <JCHEM_PKA>  (1) 
12.98355438761116

>  <JCHEM_PKA_STRONGEST_ACIDIC>  (1) 
7.151115824532209

>  <JCHEM_PKA_STRONGEST_BASIC>  (1) 
-2.976075008150179

>  <JCHEM_POLAR_SURFACE_AREA>  (1) 
203.05999999999997

>  <JCHEM_REFRACTIVITY>  (1) 
193.2328

>  <JCHEM_ROTATABLE_BOND_COUNT>  (1) 
7

>  <JCHEM_RULE_OF_FIVE>  (1) 
0

>  <JCHEM_TRADITIONAL_IUPAC>  (1) 
digoxin

>  <JCHEM_VEBER_RULE>  (1) 
0

>  <MOLECULAR_WEIGHT>  (1) 
780.9385

>  <PRODUCTS>  (1) 
Apo-digoxin; Digitek; Digox; Digoxin; Digoxin Injection C.S.D.; Lanoxin; Lanoxin Elx 0.05mg/ml Pediatric; Lanoxin Inj 0.05mg/ml Pediatric; Lanoxin Inj 0.25mg/ml; Lanoxin Tab 0.0625mg; Lanoxin Tab 0.125mg; Lanoxin Tab 0.25mg; Novo-digoxin Tab 0.25mg; PMS-digoxin; Pediatric Digoxin Injection C.S.D.; Toloxin

>  <SECONDARY_ACCESSION_NUMBERS>  (1) 
APRD00098

>  <SMILES>  (1) 
[H][C@]12CC[C@]3([H])[C@]([H])(C[C@@H](O)[C@]4(C)[C@H](CC[C@]34O)C3=CC(=O)OC3)[C@@]1(C)CC[C@@H](C2)O[C@H]1C[C@H](O)[C@H](O[C@H]2C[C@H](O)[C@H](O[C@H]3C[C@H](O)[C@H](O)[C@@H](C)O3)[C@@H](C)O2)[C@@H](C)O1

>  <SYNONYMS>  (1) 
12β-hydroxydigitoxin; 4-[(3S,5R,8R,9S,10S,12R,13S,14S)-3-[(2S,4S,5R,6R)-5-[(2S,4S,5R,6R)-5-[(2S,4S,5R,6R)-4,5-dihydroxy-6-methyl-oxan-2-yl]oxy-4-hydroxy-6-methyl-oxan-2-yl]oxy-4-hydroxy-6-methyl-oxan-2-yl]oxy-12,14-dihydroxy-10,13-dimethyl-1,2,3,4,5,6,7,8,9,11,12,15,16,17-tetradecahydrocyclopenta[a]phenanthren-17-yl]-5H-furan-2-one; Digazolan; Digossina; Digoxin; Digoxina; Digoxine; Digoxinum; Lanadicor

$$$$
