[NO NAME]
     RDKit          2D

194199  0  0  1  0  0  0  0  0999 V2000
    2.6200   -4.4093    0.0000 C   0  0  0  0  0  0  0  0  0  0  0  0
    3.3275   -3.9848    0.0000 C   0  0  0  0  0  0  0  0  0  0  0  0
    1.9127   -3.9848    0.0000 C   0  0  0  0  0  0  0  0  0  0  0  0
    3.3275   -3.1360    0.0000 C   0  0  0  0  0  0  0  0  0  0  0  0
    1.9127   -3.1360    0.0000 C   0  0  0  0  0  0  0  0  0  0  0  0
    2.6200   -2.7115    0.0000 C   0  0  0  0  0  0  0  0  0  0  0  0
    2.6200   -5.1875    0.0000 C   0  0  0  0  0  0  0  0  0  0  0  0
    3.3275   -5.6120    0.0000 C   0  0  0  0  0  0  0  0  0  0  0  0
    4.0350   -4.4093    0.0000 C   0  0  0  0  0  0  0  0  0  0  0  0
    4.0350   -5.1875    0.0000 C   0  0  0  0  0  0  0  0  0  0  0  0
    4.0350   -6.8146    0.0000 C   0  0  0  0  0  0  0  0  0  0  0  0
    4.0350   -7.6636    0.0000 N   0  0  0  0  0  0  0  0  0  0  0  0
    3.3275   -6.3901    0.0000 C   0  0  0  0  0  0  0  0  0  0  0  0
    5.4498   -6.8146    0.0000 N   0  0  0  0  0  0  0  0  0  0  0  0
    4.7424   -6.3901    0.0000 C   0  0  0  0  0  0  0  0  0  0  0  0
    6.2280   -6.3901    0.0000 C   0  0  0  0  0  0  0  0  0  0  0  0
    6.8647   -6.8146    0.0000 C   0  0  0  0  0  0  0  0  0  0  0  0
    6.8647   -7.6636    0.0000 O   0  0  0  0  0  0  0  0  0  0  0  0
    6.2280   -5.6120    0.0000 C   0  0  0  0  0  0  0  0  0  0  0  0
    6.8647   -5.1875    0.0000 C   0  0  0  0  0  0  0  0  0  0  0  0
    7.5721   -6.3901    0.0000 N   0  0  0  0  0  0  0  0  0  0  0  0
    7.5721   -5.6120    0.0000 C   0  0  0  0  0  0  0  0  0  0  0  0
    6.8647   -4.4093    0.0000 C   0  0  0  0  0  0  0  0  0  0  0  0
    7.5721   -3.9848    0.0000 C   0  0  0  0  0  0  0  0  0  0  0  0
    8.3503   -5.1875    0.0000 C   0  0  0  0  0  0  0  0  0  0  0  0
    8.3503   -4.4093    0.0000 C   0  0  0  0  0  0  0  0  0  0  0  0
    8.3503   -6.8146    0.0000 C   0  0  0  0  0  0  0  0  0  0  0  0
    8.3503   -7.6636    0.0000 C   0  0  0  0  0  0  0  0  0  0  0  0
    8.9870   -6.3901    0.0000 C   0  0  0  0  0  0  0  0  0  0  0  0
    9.6945   -6.8146    0.0000 N   0  0  0  0  0  0  0  0  0  0  0  0
    8.9870   -8.0880    0.0000 C   0  0  0  0  0  0  0  0  0  0  0  0
    9.6945   -7.6636    0.0000 C   0  0  0  0  0  0  0  0  0  0  0  0
    8.9870   -8.8662    0.0000 C   0  0  0  0  0  0  0  0  0  0  0  0
    9.6945   -9.2906    0.0000 N   0  0  0  0  0  0  0  0  0  0  0  0
   10.4726   -8.0880    0.0000 C   0  0  0  0  0  0  0  0  0  0  0  0
   10.4726   -8.8662    0.0000 C   0  0  0  0  0  0  0  0  0  0  0  0
   10.4726   -6.3901    0.0000 C   0  0  0  0  0  0  0  0  0  0  0  0
   11.1093   -6.8146    0.0000 C   0  0  0  0  0  0  0  0  0  0  0  0
   11.1093   -7.6636    0.0000 O   0  0  0  0  0  0  0  0  0  0  0  0
   11.8168   -6.3901    0.0000 N   0  0  0  0  0  0  0  0  0  0  0  0
   12.5242   -6.8146    0.0000 C   0  0  0  0  0  0  0  0  0  0  0  0
   12.5242   -7.6636    0.0000 C   0  0  0  0  0  0  0  0  0  0  0  0
   13.3024   -6.3901    0.0000 C   0  0  0  0  0  0  0  0  0  0  0  0
   13.9391   -6.8146    0.0000 N   0  0  0  0  0  0  0  0  0  0  0  0
   13.3024   -8.0880    0.0000 C   0  0  0  0  0  0  0  0  0  0  0  0
    4.7424   -5.6120    0.0000 O   0  0  0  0  0  0  0  0  0  0  0  0
    8.9870   -3.9848    0.0000 Cl  0  0  0  0  0  0  0  0  0  0  0  0
    8.9870   -5.6120    0.0000 O   0  0  0  0  0  0  0  0  0  0  0  0
   10.4726   -5.6120    0.0000 C   0  0  0  0  0  0  0  0  0  0  0  0
   11.1093   -5.1875    0.0000 O   0  0  0  0  0  0  0  0  0  0  0  0
   13.3024   -5.6120    0.0000 O   0  0  0  0  0  0  0  0  0  0  0  0
   14.7173   -8.0880    0.0000 C   0  0  0  0  0  0  0  0  0  0  0  0
   14.7173   -8.8662    0.0000 C   0  0  0  0  0  0  0  0  0  0  0  0
   13.9391   -7.6636    0.0000 C   0  0  0  0  0  0  0  0  0  0  0  0
   13.9391   -9.2906    0.0000 C   0  0  0  0  0  0  0  0  0  0  0  0
   13.3024   -8.8662    0.0000 C   0  0  0  0  0  0  0  0  0  0  0  0
   15.4247   -9.2906    0.0000 O   0  0  0  0  0  0  0  0  0  0  0  0
   14.7173   -6.3901    0.0000 C   0  0  0  0  0  0  0  0  0  0  0  0
   15.4247   -6.8146    0.0000 C   0  0  0  0  0  0  0  0  0  0  0  0
   15.4247   -7.6636    0.0000 O   0  0  0  0  0  0  0  0  0  0  0  0
   16.1321   -6.3901    0.0000 N   0  0  0  0  0  0  0  0  0  0  0  0
   16.8396   -6.8146    0.0000 C   0  0  0  0  0  0  0  0  0  0  0  0
   16.8396   -7.6636    0.0000 C   0  0  0  0  0  0  0  0  0  0  0  0
   17.5470   -6.3901    0.0000 C   0  0  0  0  0  0  0  0  0  0  0  0
   18.2544   -6.8146    0.0000 N   0  0  0  0  0  0  0  0  0  0  0  0
   18.9619   -6.3901    0.0000 C   0  0  0  0  0  0  0  0  0  0  0  0
   19.6693   -6.8146    0.0000 C   0  0  0  0  0  0  0  0  0  0  0  0
   19.6693   -7.6636    0.0000 O   0  0  0  0  0  0  0  0  0  0  0  0
   20.3767   -6.3901    0.0000 N   0  0  0  0  0  0  0  0  0  0  0  0
   20.3060   -8.1588    0.0000 O   0  0  0  0  0  0  0  0  0  0  0  0
   21.0134   -7.7343    0.0000 C   0  0  0  0  0  0  0  0  0  0  0  0
   17.5470   -8.0880    0.0000 C   0  0  0  0  0  0  0  0  0  0  0  0
   14.7173   -5.6120    0.0000 C   0  0  0  0  0  0  0  0  0  0  0  0
   15.4247   -5.1875    0.0000 C   0  0  0  0  0  0  0  0  0  0  0  0
   15.4247   -4.4093    0.0000 C   0  0  0  0  0  0  0  0  0  0  0  0
   16.1321   -3.9848    0.0000 N   0  0  0  0  0  0  0  0  0  0  0  0
   16.1321   -3.1360    0.0000 C   0  0  0  0  0  0  0  0  0  0  0  0
   15.4247   -2.7115    0.0000 O   0  0  0  0  0  0  0  0  0  0  0  0
   16.8396   -2.7115    0.0000 N   0  0  0  0  0  0  0  0  0  0  0  0
   17.5470   -5.6120    0.0000 O   0  0  0  0  0  0  0  0  0  0  0  0
   18.9619   -5.6120    0.0000 C   0  0  0  0  0  0  0  0  0  0  0  0
   19.6693   -5.1875    0.0000 C   0  0  0  0  0  0  0  0  0  0  0  0
   19.6693   -4.4093    0.0000 C   0  0  0  0  0  0  0  0  0  0  0  0
   20.3767   -3.9848    0.0000 N   0  0  0  0  0  0  0  0  0  0  0  0
   20.3767   -3.1360    0.0000 C   0  0  0  0  0  0  0  0  0  0  0  0
   19.6693   -2.7115    0.0000 N   0  0  0  0  0  0  0  0  0  0  0  0
   21.0842   -2.7115    0.0000 N   0  0  0  0  0  0  0  0  0  0  0  0
   21.0134   -6.8853    0.0000 C   0  0  0  0  0  0  0  0  0  0  0  0
   20.5890   -5.6120    0.0000 C   0  0  0  0  0  0  0  0  0  0  0  0
   21.6502   -6.3901    0.0000 C   0  0  0  0  0  0  0  0  0  0  0  0
   21.4379   -5.6120    0.0000 C   0  0  0  0  0  0  0  0  0  0  0  0
   21.7209   -8.1588    0.0000 N   0  0  0  0  0  0  0  0  0  0  0  0
   21.7209   -8.9369    0.0000 C   0  0  0  0  0  0  0  0  0  0  0  0
   22.4283   -9.3614    0.0000 C   0  0  0  0  0  0  0  0  0  0  0  0
   21.0134   -9.3614    0.0000 C   0  0  0  0  0  0  0  0  0  0  0  0
   23.1357   -8.9369    0.0000 O   0  0  0  0  0  0  0  0  0  0  0  0
   22.4283  -10.2103    0.0000 N   0  0  0  0  0  0  0  0  0  0  0  0
   17.5470   -8.8662    0.0000 C   0  0  0  0  0  0  0  0  0  0  0  0
   18.2544   -7.6636    0.0000 C   0  0  0  0  0  0  0  0  0  0  0  0
    4.7424   -8.0880    0.0000 C   0  0  0  0  0  0  0  0  0  0  0  0
    4.7424   -8.8662    0.0000 O   0  0  0  0  0  0  0  0  0  0  0  0
    5.4498   -7.6636    0.0000 C   0  0  0  0  0  0  0  0  0  0  0  0
    0.0000    0.0000    0.0000 H   0  0  0  0  0  0  0  0  0  0  0  0
    0.0000    0.0000    0.0000 H   0  0  0  0  0  0  0  0  0  0  0  0
    0.0000    0.0000    0.0000 H   0  0  0  0  0  0  0  0  0  0  0  0
    0.0000    0.0000    0.0000 H   0  0  0  0  0  0  0  0  0  0  0  0
    0.0000    0.0000    0.0000 H   0  0  0  0  0  0  0  0  0  0  0  0
    0.0000    0.0000    0.0000 H   0  0  0  0  0  0  0  0  0  0  0  0
    0.0000    0.0000    0.0000 H   0  0  0  0  0  0  0  0  0  0  0  0
    0.0000    0.0000    0.0000 H   0  0  0  0  0  0  0  0  0  0  0  0
    0.0000    0.0000    0.0000 H   0  0  0  0  0  0  0  0  0  0  0  0
    0.0000    0.0000    0.0000 H   0  0  0  0  0  0  0  0  0  0  0  0
    0.0000    0.0000    0.0000 H   0  0  0  0  0  0  0  0  0  0  0  0
    0.0000    0.0000    0.0000 H   0  0  0  0  0  0  0  0  0  0  0  0
    0.0000    0.0000    0.0000 H   0  0  0  0  0  0  0  0  0  0  0  0
    0.0000    0.0000    0.0000 H   0  0  0  0  0  0  0  0  0  0  0  0
    0.0000    0.0000    0.0000 H   0  0  0  0  0  0  0  0  0  0  0  0
    0.0000    0.0000    0.0000 H   0  0  0  0  0  0  0  0  0  0  0  0
    0.0000    0.0000    0.0000 H   0  0  0  0  0  0  0  0  0  0  0  0
    0.0000    0.0000    0.0000 H   0  0  0  0  0  0  0  0  0  0  0  0
    0.0000    0.0000    0.0000 H   0  0  0  0  0  0  0  0  0  0  0  0
    0.0000    0.0000    0.0000 H   0  0  0  0  0  0  0  0  0  0  0  0
    0.0000    0.0000    0.0000 H   0  0  0  0  0  0  0  0  0  0  0  0
    0.0000    0.0000    0.0000 H   0  0  0  0  0  0  0  0  0  0  0  0
    0.0000    0.0000    0.0000 H   0  0  0  0  0  0  0  0  0  0  0  0
    0.0000    0.0000    0.0000 H   0  0  0  0  0  0  0  0  0  0  0  0
    0.0000    0.0000    0.0000 H   0  0  0  0  0  0  0  0  0  0  0  0
    0.0000    0.0000    0.0000 H   0  0  0  0  0  0  0  0  0  0  0  0
    0.0000    0.0000    0.0000 H   0  0  0  0  0  0  0  0  0  0  0  0
    0.0000    0.0000    0.0000 H   0  0  0  0  0  0  0  0  0  0  0  0
    0.0000    0.0000    0.0000 H   0  0  0  0  0  0  0  0  0  0  0  0
    0.0000    0.0000    0.0000 H   0  0  0  0  0  0  0  0  0  0  0  0
    0.0000    0.0000    0.0000 H   0  0  0  0  0  0  0  0  0  0  0  0
    0.0000    0.0000    0.0000 H   0  0  0  0  0  0  0  0  0  0  0  0
    0.0000    0.0000    0.0000 H   0  0  0  0  0  0  0  0  0  0  0  0
    0.0000    0.0000    0.0000 H   0  0  0  0  0  0  0  0  0  0  0  0
    0.0000    0.0000    0.0000 H   0  0  0  0  0  0  0  0  0  0  0  0
    0.0000    0.0000    0.0000 H   0  0  0  0  0  0  0  0  0  0  0  0
    0.0000    0.0000    0.0000 H   0  0  0  0  0  0  0  0  0  0  0  0
    0.0000    0.0000    0.0000 H   0  0  0  0  0  0  0  0  0  0  0  0
    0.0000    0.0000    0.0000 H   0  0  0  0  0  0  0  0  0  0  0  0
    0.0000    0.0000    0.0000 H   0  0  0  0  0  0  0  0  0  0  0  0
    0.0000    0.0000    0.0000 H   0  0  0  0  0  0  0  0  0  0  0  0
    0.0000    0.0000    0.0000 H   0  0  0  0  0  0  0  0  0  0  0  0
    0.0000    0.0000    0.0000 H   0  0  0  0  0  0  0  0  0  0  0  0
    0.0000    0.0000    0.0000 H   0  0  0  0  0  0  0  0  0  0  0  0
    0.0000    0.0000    0.0000 H   0  0  0  0  0  0  0  0  0  0  0  0
    0.0000    0.0000    0.0000 H   0  0  0  0  0  0  0  0  0  0  0  0
    0.0000    0.0000    0.0000 H   0  0  0  0  0  0  0  0  0  0  0  0
    0.0000    0.0000    0.0000 H   0  0  0  0  0  0  0  0  0  0  0  0
    0.0000    0.0000    0.0000 H   0  0  0  0  0  0  0  0  0  0  0  0
    0.0000    0.0000    0.0000 H   0  0  0  0  0  0  0  0  0  0  0  0
    0.0000    0.0000    0.0000 H   0  0  0  0  0  0  0  0  0  0  0  0
    0.0000    0.0000    0.0000 H   0  0  0  0  0  0  0  0  0  0  0  0
    0.0000    0.0000    0.0000 H   0  0  0  0  0  0  0  0  0  0  0  0
    0.0000    0.0000    0.0000 H   0  0  0  0  0  0  0  0  0  0  0  0
    0.0000    0.0000    0.0000 H   0  0  0  0  0  0  0  0  0  0  0  0
    0.0000    0.0000    0.0000 H   0  0  0  0  0  0  0  0  0  0  0  0
    0.0000    0.0000    0.0000 H   0  0  0  0  0  0  0  0  0  0  0  0
    0.0000    0.0000    0.0000 H   0  0  0  0  0  0  0  0  0  0  0  0
    0.0000    0.0000    0.0000 H   0  0  0  0  0  0  0  0  0  0  0  0
    0.0000    0.0000    0.0000 H   0  0  0  0  0  0  0  0  0  0  0  0
    0.0000    0.0000    0.0000 H   0  0  0  0  0  0  0  0  0  0  0  0
    0.0000    0.0000    0.0000 H   0  0  0  0  0  0  0  0  0  0  0  0
    0.0000    0.0000    0.0000 H   0  0  0  0  0  0  0  0  0  0  0  0
    0.0000    0.0000    0.0000 H   0  0  0  0  0  0  0  0  0  0  0  0
    0.0000    0.0000    0.0000 H   0  0  0  0  0  0  0  0  0  0  0  0
    0.0000    0.0000    0.0000 H   0  0  0  0  0  0  0  0  0  0  0  0
    0.0000    0.0000    0.0000 H   0  0  0  0  0  0  0  0  0  0  0  0
    0.0000    0.0000    0.0000 H   0  0  0  0  0  0  0  0  0  0  0  0
    0.0000    0.0000    0.0000 H   0  0  0  0  0  0  0  0  0  0  0  0
    0.0000    0.0000    0.0000 H   0  0  0  0  0  0  0  0  0  0  0  0
    0.0000    0.0000    0.0000 H   0  0  0  0  0  0  0  0  0  0  0  0
    0.0000    0.0000    0.0000 H   0  0  0  0  0  0  0  0  0  0  0  0
    0.0000    0.0000    0.0000 H   0  0  0  0  0  0  0  0  0  0  0  0
    0.0000    0.0000    0.0000 H   0  0  0  0  0  0  0  0  0  0  0  0
    0.0000    0.0000    0.0000 H   0  0  0  0  0  0  0  0  0  0  0  0
    0.0000    0.0000    0.0000 H   0  0  0  0  0  0  0  0  0  0  0  0
    0.0000    0.0000    0.0000 H   0  0  0  0  0  0  0  0  0  0  0  0
    0.0000    0.0000    0.0000 H   0  0  0  0  0  0  0  0  0  0  0  0
    0.0000    0.0000    0.0000 H   0  0  0  0  0  0  0  0  0  0  0  0
    0.0000    0.0000    0.0000 H   0  0  0  0  0  0  0  0  0  0  0  0
    0.0000    0.0000    0.0000 H   0  0  0  0  0  0  0  0  0  0  0  0
    0.0000    0.0000    0.0000 H   0  0  0  0  0  0  0  0  0  0  0  0
    0.0000    0.0000    0.0000 H   0  0  0  0  0  0  0  0  0  0  0  0
    0.0000    0.0000    0.0000 H   0  0  0  0  0  0  0  0  0  0  0  0
    0.0000    0.0000    0.0000 H   0  0  0  0  0  0  0  0  0  0  0  0
    0.0000    0.0000    0.0000 H   0  0  0  0  0  0  0  0  0  0  0  0
    0.0000    0.0000    0.0000 H   0  0  0  0  0  0  0  0  0  0  0  0
    0.0000    0.0000    0.0000 H   0  0  0  0  0  0  0  0  0  0  0  0
    0.0000    0.0000    0.0000 H   0  0  0  0  0  0  0  0  0  0  0  0
    0.0000    0.0000    0.0000 H   0  0  0  0  0  0  0  0  0  0  0  0
    0.0000    0.0000    0.0000 H   0  0  0  0  0  0  0  0  0  0  0  0
    0.0000    0.0000    0.0000 H   0  0  0  0  0  0  0  0  0  0  0  0
  3  1  2  0
  7  1  1  0
  2  1  1  0
  4  2  2  0
  9  2  1  0
  5  3  1  0
  6  4  1  0
  6  5  2  0
  8  7  2  0
 13  8  1  0
 10  8  1  0
 10  9  2  0
 11 13  1  6
 15 11  1  0
 11 12  1  0
100 12  1  0
 15 14  1  0
 16 14  1  6
 46 15  2  0
 16 19  1  0
 17 16  1  0
 21 17  1  0
 18 17  2  0
 20 19  1  0
 23 20  1  0
 22 20  2  0
 27 21  1  1
 25 22  1  0
 24 23  2  0
 26 24  1  0
 26 25  2  0
 47 26  1  0
 29 27  1  0
 27 28  1  0
 31 28  1  0
 30 29  1  0
 48 29  2  0
 37 30  1  1
 33 31  1  0
 32 31  2  0
 35 32  1  0
 34 33  2  0
 36 34  1  0
 36 35  2  0
 38 37  1  0
 37 49  1  0
 40 38  1  0
 39 38  2  0
 41 40  1  6
 43 41  1  0
 41 42  1  0
 45 42  1  0
 44 43  1  0
 51 43  2  0
 58 44  1  6
 56 45  2  0
 54 45  1  0
 50 49  1  0
 54 52  2  0
 53 52  1  0
 55 53  2  0
 57 53  1  0
 56 55  1  0
 59 58  1  0
 58 73  1  0
 61 59  1  0
 60 59  2  0
 62 61  1  6
 64 62  1  0
 62 63  1  0
 72 63  1  0
 65 64  1  0
 80 64  2  0
 66 65  1  1
 67 66  1  0
 66 81  1  0
 69 67  1  0
 68 67  2  0
 88 69  1  0
 89 69  1  0
 71 70  2  0
 88 71  1  1
 92 71  1  0
 98 72  1  0
 72 99  1  0
 74 73  1  0
 75 74  1  0
 76 75  1  0
 77 76  1  0
 78 77  2  0
 79 77  1  0
 82 81  1  0
 83 82  1  0
 84 83  1  0
 85 84  1  0
 86 85  2  3
 87 85  1  0
 90 88  1  0
 91 89  1  0
 91 90  1  0
 93 92  1  1
 94 93  1  0
 93 95  1  0
 96 94  2  0
 97 94  1  0
101100  2  0
102100  1  0
  3103  1  0
  4104  1  0
  5105  1  0
  6106  1  0
  7107  1  0
  9108  1  0
 10109  1  0
 11110  1  0
 12111  1  0
 13112  1  0
 13113  1  0
 14114  1  0
 16115  1  0
 19116  1  0
 19117  1  0
 21118  1  0
 22119  1  0
 23120  1  0
 24121  1  0
 25122  1  0
 27123  1  0
 28124  1  0
 28125  1  0
 30126  1  0
 32127  1  0
 33128  1  0
 35129  1  0
 36130  1  0
 37131  1  0
 40132  1  0
 41133  1  0
 42134  1  0
 42135  1  0
 44136  1  0
 49137  1  0
 49138  1  0
 50139  1  0
 52140  1  0
 54141  1  0
 55142  1  0
 56143  1  0
 57144  1  0
 58145  1  0
 61146  1  0
 62147  1  0
 63148  1  0
 63149  1  0
 65150  1  0
 66151  1  0
 72152  1  0
 73153  1  0
 73154  1  0
 74155  1  0
 74156  1  0
 75157  1  0
 75158  1  0
 76159  1  0
 79160  1  0
 79161  1  0
 81162  1  0
 81163  1  0
 82164  1  0
 82165  1  0
 83166  1  0
 83167  1  0
 84168  1  0
 86169  1  0
 87170  1  0
 87171  1  0
 88172  1  0
 89173  1  0
 89174  1  0
 90175  1  0
 90176  1  0
 91177  1  0
 91178  1  0
 92179  1  0
 93180  1  0
 95181  1  0
 95182  1  0
 95183  1  0
 97184  1  0
 97185  1  0
 98186  1  0
 98187  1  0
 98188  1  0
 99189  1  0
 99190  1  0
 99191  1  0
102192  1  0
102193  1  0
102194  1  0
M  END
>  <ALOGPS_LOGP>  (1) 
1.33

>  <ALOGPS_LOGS>  (1) 
-5.31

>  <ALOGPS_SOLUBILITY>  (1) 
6.94e-03 g/l

>  <DATABASE_ID>  (1) 
DB00050

>  <DATABASE_NAME>  (1) 
drugbank

>  <DRUGBANK_ID>  (1) 
DB00050

>  <DRUG_GROUPS>  (1) 
approved; investigational

>  <EXACT_MASS>  (1) 
1429.669818444

>  <FORMULA>  (1) 
C70H92ClN17O14

>  <GENERIC_NAME>  (1) 
Cetrorelix

>  <INCHI_IDENTIFIER>  (1) 
InChI=1S/C70H92ClN17O14/c1-39(2)31-52(61(94)82-51(15-9-28-77-69(73)74)68(101)88-30-10-16-58(88)67(100)79-40(3)59(72)92)83-60(93)50(14-8-29-78-70(75)102)81-63(96)54(34-43-20-25-49(91)26-21-43)86-66(99)57(38-89)87-65(98)56(36-45-11-7-27-76-37-45)85-64(97)55(33-42-18-23-48(71)24-19-42)84-62(95)53(80-41(4)90)35-44-17-22-46-12-5-6-13-47(46)32-44/h5-7,11-13,17-27,32,37,39-40,50-58,89,91H,8-10,14-16,28-31,33-36,38H2,1-4H3,(H2,72,92)(H,79,100)(H,80,90)(H,81,96)(H,82,94)(H,83,93)(H,84,95)(H,85,97)(H,86,99)(H,87,98)(H4,73,74,77)(H3,75,78,102)/t40-,50-,51+,52+,53-,54+,55-,56-,57+,58+/m1/s1

>  <INCHI_KEY>  (1) 
SBNPWPIBESPSIF-MHWMIDJBSA-N

>  <JCHEM_ACCEPTOR_COUNT>  (1) 
18

>  <JCHEM_AVERAGE_POLARIZABILITY>  (1) 
148.0903995678307

>  <JCHEM_BIOAVAILABILITY>  (1) 
0

>  <JCHEM_DONOR_COUNT>  (1) 
17

>  <JCHEM_FORMAL_CHARGE>  (1) 
0

>  <JCHEM_GHOSE_FILTER>  (1) 
0

>  <JCHEM_IUPAC>  (1) 
(2S)-N-[(2S)-5-carbamimidamido-1-[(2S)-2-{[(1R)-1-carbamoylethyl]carbamoyl}pyrrolidin-1-yl]-1-oxopentan-2-yl]-2-[(2R)-5-(carbamoylamino)-2-[(2S)-2-[(2S)-2-[(2R)-2-[(2R)-3-(4-chlorophenyl)-2-[(2R)-2-acetamido-3-(naphthalen-2-yl)propanamido]propanamido]-3-(pyridin-3-yl)propanamido]-3-hydroxypropanamido]-3-(4-hydroxyphenyl)propanamido]pentanamido]-4-methylpentanamide

>  <JCHEM_LOGP>  (1) 
-1.7055381771284417

>  <JCHEM_MDDR_LIKE_RULE>  (1) 
1

>  <JCHEM_NUMBER_OF_RINGS>  (1) 
6

>  <JCHEM_PHYSIOLOGICAL_CHARGE>  (1) 
1

>  <JCHEM_PKA>  (1) 
11.590298082972675

>  <JCHEM_PKA_STRONGEST_ACIDIC>  (1) 
9.49145482134492

>  <JCHEM_PKA_STRONGEST_BASIC>  (1) 
11.109391789497042

>  <JCHEM_POLAR_SURFACE_AREA>  (1) 
495.66999999999985

>  <JCHEM_REFRACTIVITY>  (1) 
384.1588000000001

>  <JCHEM_ROTATABLE_BOND_COUNT>  (1) 
38

>  <JCHEM_RULE_OF_FIVE>  (1) 
0

>  <JCHEM_TRADITIONAL_IUPAC>  (1) 
cetrorelix

>  <JCHEM_VEBER_RULE>  (1) 
0

>  <MOLECULAR_WEIGHT>  (1) 
1431.038

>  <PRODUCTS>  (1) 
Cetrotide

>  <SALTS>  (1) 
Cetrorelix Acetate

>  <SECONDARY_ACCESSION_NUMBERS>  (1) 
BTD00115; APRD00686; BIOD00115

>  <SMILES>  (1) 
CC(C)C[C@H](NC(=O)[C@@H](CCCNC(N)=O)NC(=O)[C@H](CC1=CC=C(O)C=C1)NC(=O)[C@H](CO)NC(=O)[C@@H](CC1=CN=CC=C1)NC(=O)[C@@H](CC1=CC=C(Cl)C=C1)NC(=O)[C@@H](CC1=CC2=CC=CC=C2C=C1)NC(C)=O)C(=O)N[C@@H](CCCNC(N)=N)C(=O)N1CCC[C@H]1C(=O)N[C@H](C)C(N)=O

>  <SYNONYMS>  (1) 
Cetrorelixum

$$$$
