710
     RDKit          2D

 42 41  0  0  1  0  0  0  0  0999 V2000
    4.2433   -1.7464    0.0000 P   0  0  0  0  0  0  0  0  0  0  0  0
    2.8143   -2.5714    0.0000 P   0  0  0  0  0  0  0  0  0  0  0  0
    3.9413   -2.8734    0.0000 O   0  0  0  0  0  0  0  0  0  0  0  0
    4.9577   -1.3339    0.0000 O   0  0  0  0  0  0  0  0  0  0  0  0
    4.6558   -2.4609    0.0000 O   0  0  0  0  0  0  0  0  0  0  0  0
    2.0998   -2.9839    0.0000 O   0  0  0  0  0  0  0  0  0  0  0  0
    2.4018   -1.8570    0.0000 O   0  0  0  0  0  0  0  0  0  0  0  0
    4.1000   -0.9339    0.0000 O   0  0  0  0  0  0  0  0  0  0  0  0
    2.8143   -3.3964    0.0000 O   0  0  0  0  0  0  0  0  0  0  0  0
    2.6275   -0.1016    0.0000 N   0  0  0  0  0  0  0  0  0  0  0  0
    3.5288   -2.1589    0.0000 C   0  0  0  0  0  0  0  0  0  0  0  0
    3.1163   -1.4444    0.0000 C   0  0  0  0  0  0  0  0  0  0  0  0
    3.2595   -0.6320    0.0000 C   0  0  0  0  0  0  0  0  0  0  0  0
    2.7708    0.7108    0.0000 C   0  0  0  0  0  0  0  0  0  0  0  0
    2.1388    1.2412    0.0000 C   0  0  0  0  0  0  0  0  0  0  0  0
    2.2820    2.0536    0.0000 C   0  0  0  0  0  0  0  0  0  0  0  0
    1.8523   -0.3838    0.0000 C   0  0  0  0  0  0  0  0  0  0  0  0
    1.6500    2.5840    0.0000 C   0  0  0  0  0  0  0  0  0  0  0  0
    1.7933    3.3964    0.0000 C   0  0  0  0  0  0  0  0  0  0  0  0
    0.0000    0.0000    0.0000 H   0  0  0  0  0  0  0  0  0  0  0  0
    0.0000    0.0000    0.0000 H   0  0  0  0  0  0  0  0  0  0  0  0
    0.0000    0.0000    0.0000 H   0  0  0  0  0  0  0  0  0  0  0  0
    0.0000    0.0000    0.0000 H   0  0  0  0  0  0  0  0  0  0  0  0
    0.0000    0.0000    0.0000 H   0  0  0  0  0  0  0  0  0  0  0  0
    0.0000    0.0000    0.0000 H   0  0  0  0  0  0  0  0  0  0  0  0
    0.0000    0.0000    0.0000 H   0  0  0  0  0  0  0  0  0  0  0  0
    0.0000    0.0000    0.0000 H   0  0  0  0  0  0  0  0  0  0  0  0
    0.0000    0.0000    0.0000 H   0  0  0  0  0  0  0  0  0  0  0  0
    0.0000    0.0000    0.0000 H   0  0  0  0  0  0  0  0  0  0  0  0
    0.0000    0.0000    0.0000 H   0  0  0  0  0  0  0  0  0  0  0  0
    0.0000    0.0000    0.0000 H   0  0  0  0  0  0  0  0  0  0  0  0
    0.0000    0.0000    0.0000 H   0  0  0  0  0  0  0  0  0  0  0  0
    0.0000    0.0000    0.0000 H   0  0  0  0  0  0  0  0  0  0  0  0
    0.0000    0.0000    0.0000 H   0  0  0  0  0  0  0  0  0  0  0  0
    0.0000    0.0000    0.0000 H   0  0  0  0  0  0  0  0  0  0  0  0
    0.0000    0.0000    0.0000 H   0  0  0  0  0  0  0  0  0  0  0  0
    0.0000    0.0000    0.0000 H   0  0  0  0  0  0  0  0  0  0  0  0
    0.0000    0.0000    0.0000 H   0  0  0  0  0  0  0  0  0  0  0  0
    0.0000    0.0000    0.0000 H   0  0  0  0  0  0  0  0  0  0  0  0
    0.0000    0.0000    0.0000 H   0  0  0  0  0  0  0  0  0  0  0  0
    0.0000    0.0000    0.0000 H   0  0  0  0  0  0  0  0  0  0  0  0
    0.0000    0.0000    0.0000 H   0  0  0  0  0  0  0  0  0  0  0  0
  1  4  1  0
  1  5  1  0
  1  8  2  0
  1 11  1  0
  2  6  1  0
  2  7  1  0
  2  9  2  0
  2 11  1  0
  3 11  1  0
 10 13  1  0
 10 14  1  0
 10 17  1  0
 11 12  1  0
 12 13  1  0
 14 15  1  0
 15 16  1  0
 16 18  1  0
 18 19  1  0
  3 20  1  0
  4 21  1  0
  5 22  1  0
  6 23  1  0
  7 24  1  0
 12 25  1  0
 12 26  1  0
 13 27  1  0
 13 28  1  0
 14 29  1  0
 14 30  1  0
 15 31  1  0
 15 32  1  0
 16 33  1  0
 16 34  1  0
 17 35  1  0
 17 36  1  0
 17 37  1  0
 18 38  1  0
 18 39  1  0
 19 40  1  0
 19 41  1  0
 19 42  1  0
M  END
>  <ALOGPS_LOGP>  (1) 
0.26

>  <ALOGPS_LOGS>  (1) 
-1.38

>  <ALOGPS_SOLUBILITY>  (1) 
1.34e+01 g/l

>  <DATABASE_ID>  (1) 
DB00710

>  <DATABASE_NAME>  (1) 
drugbank

>  <DRUGBANK_ID>  (1) 
DB00710

>  <DRUG_GROUPS>  (1) 
approved; investigational

>  <EXACT_MASS>  (1) 
319.094975119

>  <FORMULA>  (1) 
C9H23NO7P2

>  <GENERIC_NAME>  (1) 
Ibandronate

>  <INCHI_IDENTIFIER>  (1) 
InChI=1S/C9H23NO7P2/c1-3-4-5-7-10(2)8-6-9(11,18(12,13)14)19(15,16)17/h11H,3-8H2,1-2H3,(H2,12,13,14)(H2,15,16,17)

>  <INCHI_KEY>  (1) 
MPBVHIBUJCELCL-UHFFFAOYSA-N

>  <INTERNATIONAL_BRANDS>  (1) 
ADRONiL; Bonviva

>  <JCHEM_ACCEPTOR_COUNT>  (1) 
8

>  <JCHEM_AVERAGE_POLARIZABILITY>  (1) 
29.507715298841617

>  <JCHEM_BIOAVAILABILITY>  (1) 
1

>  <JCHEM_DONOR_COUNT>  (1) 
5

>  <JCHEM_FORMAL_CHARGE>  (1) 
0

>  <JCHEM_GHOSE_FILTER>  (1) 
0

>  <JCHEM_IUPAC>  (1) 
{1-hydroxy-3-[methyl(pentyl)amino]-1-phosphonopropyl}phosphonic acid

>  <JCHEM_LOGP>  (1) 
-2.4814348803220447

>  <JCHEM_MDDR_LIKE_RULE>  (1) 
0

>  <JCHEM_NUMBER_OF_RINGS>  (1) 
0

>  <JCHEM_PHYSIOLOGICAL_CHARGE>  (1) 
-1

>  <JCHEM_PKA>  (1) 
1.424404471832097

>  <JCHEM_PKA_STRONGEST_ACIDIC>  (1) 
0.660822293952346

>  <JCHEM_PKA_STRONGEST_BASIC>  (1) 
9.934858102751113

>  <JCHEM_POLAR_SURFACE_AREA>  (1) 
138.53

>  <JCHEM_REFRACTIVITY>  (1) 
71.1627

>  <JCHEM_ROTATABLE_BOND_COUNT>  (1) 
9

>  <JCHEM_RULE_OF_FIVE>  (1) 
1

>  <JCHEM_TRADITIONAL_IUPAC>  (1) 
ibandronate

>  <JCHEM_VEBER_RULE>  (1) 
0

>  <MOLECULAR_WEIGHT>  (1) 
319.2289

>  <PRODUCTS>  (1) 
Bondenza; Bondronat; Boniva; Bonviva; Iasibon; Ibandronate Sodium; Ibandronate sodium; Ibandronic Acid Accord; Ibandronic Acid Sandoz

>  <SALTS>  (1) 
Ibandronate sodium

>  <SECONDARY_ACCESSION_NUMBERS>  (1) 
APRD00231; DB04635

>  <SMILES>  (1) 
CCCCCN(C)CCC(O)(P(O)(O)=O)P(O)(O)=O

>  <SYNONYMS>  (1) 
Ibandronic Acid

$$$$
