541
     RDKit          2D

116124  0  0  1  0  0  0  0  0999 V2000
    5.6185   -3.9523    0.0000 O   0  0  0  0  0  0  0  0  0  0  0  0
    6.6643   -2.3396    0.0000 O   0  0  0  0  0  0  0  0  0  0  0  0
    7.2773   -2.8916    0.0000 O   0  0  0  0  0  0  0  0  0  0  0  0
    7.1059   -3.6986    0.0000 O   0  0  0  0  0  0  0  0  0  0  0  0
    7.5551   -1.5851    0.0000 O   0  0  0  0  0  0  0  0  0  0  0  0
    6.7488    1.3650    0.0000 O   0  0  0  0  0  0  0  0  0  0  0  0
    6.6806   -4.9083    0.0000 O   0  0  0  0  0  0  0  0  0  0  0  0
    5.3863    0.2818    0.0000 O   0  0  0  0  0  0  0  0  0  0  0  0
    4.3263    0.3189    0.0000 O   0  0  0  0  0  0  0  0  0  0  0  0
    7.9718    3.8932    0.0000 O   0  0  0  0  0  0  0  0  0  0  0  0
    3.6167   -2.1136    0.0000 N   0  0  0  0  0  0  0  0  0  0  0  0
    6.1573   -1.2880    0.0000 N   0  0  0  0  0  0  0  0  0  0  0  0
    5.6815    4.0205    0.0000 N   0  0  0  0  0  0  0  0  0  0  0  0
    3.8513    1.4175    0.0000 N   0  0  0  0  0  0  0  0  0  0  0  0
    4.8870   -1.7007    0.0000 C   0  0  0  0  0  0  0  0  0  0  0  0
    4.3710   -2.2738    0.0000 C   0  0  0  0  0  0  0  0  0  0  0  0
    4.6093   -3.0073    0.0000 C   0  0  0  0  0  0  0  0  0  0  0  0
    5.6413   -1.8611    0.0000 C   0  0  0  0  0  0  0  0  0  0  0  0
    5.8796   -2.5945    0.0000 C   0  0  0  0  0  0  0  0  0  0  0  0
    4.5693   -0.8464    0.0000 C   0  0  0  0  0  0  0  0  0  0  0  0
    5.3637   -3.1676    0.0000 C   0  0  0  0  0  0  0  0  0  0  0  0
    5.1647   -0.3943    0.0000 C   0  0  0  0  0  0  0  0  0  0  0  0
    3.3784   -1.3801    0.0000 C   0  0  0  0  0  0  0  0  0  0  0  0
    4.8642   -3.7919    0.0000 C   0  0  0  0  0  0  0  0  0  0  0  0
    4.0933   -3.5803    0.0000 C   0  0  0  0  0  0  0  0  0  0  0  0
    5.9191   -0.5546    0.0000 C   0  0  0  0  0  0  0  0  0  0  0  0
    3.1006   -2.6866    0.0000 C   0  0  0  0  0  0  0  0  0  0  0  0
    3.3390   -3.4201    0.0000 C   0  0  0  0  0  0  0  0  0  0  0  0
    6.4928   -3.1466    0.0000 C   0  0  0  0  0  0  0  0  0  0  0  0
    4.9264    0.3392    0.0000 C   0  0  0  0  0  0  0  0  0  0  0  0
    4.3122   -4.4050    0.0000 C   0  0  0  0  0  0  0  0  0  0  0  0
    6.4350    0.0185    0.0000 C   0  0  0  0  0  0  0  0  0  0  0  0
    6.9420   -1.0331    0.0000 C   0  0  0  0  0  0  0  0  0  0  0  0
    5.4424    0.9122    0.0000 C   0  0  0  0  0  0  0  0  0  0  0  0
    6.1967    0.7519    0.0000 C   0  0  0  0  0  0  0  0  0  0  0  0
    5.1875    1.6969    0.0000 C   0  0  0  0  0  0  0  0  0  0  0  0
    5.8735   -4.7369    0.0000 C   0  0  0  0  0  0  0  0  0  0  0  0
    5.9721    1.9518    0.0000 C   0  0  0  0  0  0  0  0  0  0  0  0
    4.4225    2.0059    0.0000 C   0  0  0  0  0  0  0  0  0  0  0  0
    6.4094    2.6514    0.0000 C   0  0  0  0  0  0  0  0  0  0  0  0
    4.8784    0.9320    0.0000 C   0  0  0  0  0  0  0  0  0  0  0  0
    5.3215   -5.3500    0.0000 C   0  0  0  0  0  0  0  0  0  0  0  0
    7.8905   -3.4436    0.0000 C   0  0  0  0  0  0  0  0  0  0  0  0
    7.1315    3.0816    0.0000 C   0  0  0  0  0  0  0  0  0  0  0  0
    6.2945    3.4685    0.0000 C   0  0  0  0  0  0  0  0  0  0  0  0
    4.0352    2.7344    0.0000 C   0  0  0  0  0  0  0  0  0  0  0  0
    7.1472    3.9219    0.0000 C   0  0  0  0  0  0  0  0  0  0  0  0
    6.4418    4.3787    0.0000 C   0  0  0  0  0  0  0  0  0  0  0  0
    4.2068    3.5414    0.0000 C   0  0  0  0  0  0  0  0  0  0  0  0
    4.8569    4.0493    0.0000 C   0  0  0  0  0  0  0  0  0  0  0  0
    3.2279    2.5899    0.0000 C   0  0  0  0  0  0  0  0  0  0  0  0
    7.5558    1.1934    0.0000 C   0  0  0  0  0  0  0  0  0  0  0  0
    3.1145    1.7776    0.0000 C   0  0  0  0  0  0  0  0  0  0  0  0
    7.5844    4.6215    0.0000 C   0  0  0  0  0  0  0  0  0  0  0  0
    2.5624    3.1256    0.0000 C   0  0  0  0  0  0  0  0  0  0  0  0
    2.3277    1.4447    0.0000 C   0  0  0  0  0  0  0  0  0  0  0  0
    7.1971    5.3500    0.0000 C   0  0  0  0  0  0  0  0  0  0  0  0
    6.3260    0.4139    0.0000 C   0  0  0  0  0  0  0  0  0  0  0  0
    1.7682    2.8111    0.0000 C   0  0  0  0  0  0  0  0  0  0  0  0
    1.6500    1.9650    0.0000 C   0  0  0  0  0  0  0  0  0  0  0  0
    0.0000    0.0000    0.0000 H   0  0  0  0  0  0  0  0  0  0  0  0
    0.0000    0.0000    0.0000 H   0  0  0  0  0  0  0  0  0  0  0  0
    0.0000    0.0000    0.0000 H   0  0  0  0  0  0  0  0  0  0  0  0
    0.0000    0.0000    0.0000 H   0  0  0  0  0  0  0  0  0  0  0  0
    0.0000    0.0000    0.0000 H   0  0  0  0  0  0  0  0  0  0  0  0
    0.0000    0.0000    0.0000 H   0  0  0  0  0  0  0  0  0  0  0  0
    0.0000    0.0000    0.0000 H   0  0  0  0  0  0  0  0  0  0  0  0
    0.0000    0.0000    0.0000 H   0  0  0  0  0  0  0  0  0  0  0  0
    0.0000    0.0000    0.0000 H   0  0  0  0  0  0  0  0  0  0  0  0
    0.0000    0.0000    0.0000 H   0  0  0  0  0  0  0  0  0  0  0  0
    0.0000    0.0000    0.0000 H   0  0  0  0  0  0  0  0  0  0  0  0
    0.0000    0.0000    0.0000 H   0  0  0  0  0  0  0  0  0  0  0  0
    0.0000    0.0000    0.0000 H   0  0  0  0  0  0  0  0  0  0  0  0
    0.0000    0.0000    0.0000 H   0  0  0  0  0  0  0  0  0  0  0  0
    0.0000    0.0000    0.0000 H   0  0  0  0  0  0  0  0  0  0  0  0
    0.0000    0.0000    0.0000 H   0  0  0  0  0  0  0  0  0  0  0  0
    0.0000    0.0000    0.0000 H   0  0  0  0  0  0  0  0  0  0  0  0
    0.0000    0.0000    0.0000 H   0  0  0  0  0  0  0  0  0  0  0  0
    0.0000    0.0000    0.0000 H   0  0  0  0  0  0  0  0  0  0  0  0
    0.0000    0.0000    0.0000 H   0  0  0  0  0  0  0  0  0  0  0  0
    0.0000    0.0000    0.0000 H   0  0  0  0  0  0  0  0  0  0  0  0
    0.0000    0.0000    0.0000 H   0  0  0  0  0  0  0  0  0  0  0  0
    0.0000    0.0000    0.0000 H   0  0  0  0  0  0  0  0  0  0  0  0
    0.0000    0.0000    0.0000 H   0  0  0  0  0  0  0  0  0  0  0  0
    0.0000    0.0000    0.0000 H   0  0  0  0  0  0  0  0  0  0  0  0
    0.0000    0.0000    0.0000 H   0  0  0  0  0  0  0  0  0  0  0  0
    0.0000    0.0000    0.0000 H   0  0  0  0  0  0  0  0  0  0  0  0
    0.0000    0.0000    0.0000 H   0  0  0  0  0  0  0  0  0  0  0  0
    0.0000    0.0000    0.0000 H   0  0  0  0  0  0  0  0  0  0  0  0
    0.0000    0.0000    0.0000 H   0  0  0  0  0  0  0  0  0  0  0  0
    0.0000    0.0000    0.0000 H   0  0  0  0  0  0  0  0  0  0  0  0
    0.0000    0.0000    0.0000 H   0  0  0  0  0  0  0  0  0  0  0  0
    0.0000    0.0000    0.0000 H   0  0  0  0  0  0  0  0  0  0  0  0
    0.0000    0.0000    0.0000 H   0  0  0  0  0  0  0  0  0  0  0  0
    0.0000    0.0000    0.0000 H   0  0  0  0  0  0  0  0  0  0  0  0
    0.0000    0.0000    0.0000 H   0  0  0  0  0  0  0  0  0  0  0  0
    0.0000    0.0000    0.0000 H   0  0  0  0  0  0  0  0  0  0  0  0
    0.0000    0.0000    0.0000 H   0  0  0  0  0  0  0  0  0  0  0  0
    0.0000    0.0000    0.0000 H   0  0  0  0  0  0  0  0  0  0  0  0
    0.0000    0.0000    0.0000 H   0  0  0  0  0  0  0  0  0  0  0  0
    0.0000    0.0000    0.0000 H   0  0  0  0  0  0  0  0  0  0  0  0
    0.0000    0.0000    0.0000 H   0  0  0  0  0  0  0  0  0  0  0  0
    0.0000    0.0000    0.0000 H   0  0  0  0  0  0  0  0  0  0  0  0
    0.0000    0.0000    0.0000 H   0  0  0  0  0  0  0  0  0  0  0  0
    0.0000    0.0000    0.0000 H   0  0  0  0  0  0  0  0  0  0  0  0
    0.0000    0.0000    0.0000 H   0  0  0  0  0  0  0  0  0  0  0  0
    0.0000    0.0000    0.0000 H   0  0  0  0  0  0  0  0  0  0  0  0
    0.0000    0.0000    0.0000 H   0  0  0  0  0  0  0  0  0  0  0  0
    0.0000    0.0000    0.0000 H   0  0  0  0  0  0  0  0  0  0  0  0
    0.0000    0.0000    0.0000 H   0  0  0  0  0  0  0  0  0  0  0  0
    0.0000    0.0000    0.0000 H   0  0  0  0  0  0  0  0  0  0  0  0
    0.0000    0.0000    0.0000 H   0  0  0  0  0  0  0  0  0  0  0  0
    0.0000    0.0000    0.0000 H   0  0  0  0  0  0  0  0  0  0  0  0
    0.0000    0.0000    0.0000 H   0  0  0  0  0  0  0  0  0  0  0  0
    0.0000    0.0000    0.0000 H   0  0  0  0  0  0  0  0  0  0  0  0
    0.0000    0.0000    0.0000 H   0  0  0  0  0  0  0  0  0  0  0  0
 21  1  1  1
  1 37  1  0
 19  2  1  6
  3 29  1  0
  3 43  1  0
  4 29  2  0
  5 33  2  0
  6 35  1  0
  6 52  1  0
  7 37  2  0
  8 41  1  0
  8 58  1  0
  9 41  2  0
 47 10  1  1
 11 16  1  0
 11 23  1  0
 11 27  1  0
 12 18  1  0
 12 26  1  0
 12 33  1  0
 13 45  1  0
 13 48  1  0
 13 50  1  0
 14 39  1  0
 14 53  1  0
 15 16  1  0
 15 18  1  0
 15 20  1  6
 15 22  1  0
 16 17  1  0
 17 21  1  0
 17 24  1  1
 17 25  1  0
 18 19  1  0
 19 21  1  0
 19 29  1  0
 20 23  1  0
 22 26  2  0
 22 30  1  0
 24 31  1  0
 25 28  2  0
 26 32  1  0
 27 28  1  0
 30 34  2  0
 32 35  2  0
 34 35  1  0
 36 34  1  6
 36 38  1  0
 36 39  1  0
 36 41  1  0
 37 42  1  0
 38 40  1  0
 39 46  2  0
 40 44  1  0
 40 45  1  0
 44 47  1  0
 46 49  1  0
 46 51  1  0
 47 48  1  0
 47 54  1  0
 49 50  1  0
 51 53  2  0
 51 55  1  0
 53 56  1  0
 54 57  1  0
 55 59  2  0
 56 60  2  0
 59 60  1  0
  2 61  1  0
 10 62  1  0
 14 63  1  0
 16 64  1  1
 18 65  1  6
 20 66  1  0
 20 67  1  0
 21 68  1  0
 23 69  1  0
 23 70  1  0
 24 71  1  0
 24 72  1  0
 25 73  1  0
 27 74  1  0
 27 75  1  0
 28 76  1  0
 30 77  1  0
 31 78  1  0
 31 79  1  0
 31 80  1  0
 32 81  1  0
 33 82  1  0
 38 83  1  0
 38 84  1  0
 40 85  1  1
 42 86  1  0
 42 87  1  0
 42 88  1  0
 43 89  1  0
 43 90  1  0
 43 91  1  0
 44 92  1  0
 44 93  1  0
 45 94  1  0
 45 95  1  0
 48 96  1  0
 48 97  1  0
 49 98  1  0
 49 99  1  0
 50100  1  0
 50101  1  0
 52102  1  0
 52103  1  0
 52104  1  0
 54105  1  0
 54106  1  0
 55107  1  0
 56108  1  0
 57109  1  0
 57110  1  0
 57111  1  0
 58112  1  0
 58113  1  0
 58114  1  0
 59115  1  0
 60116  1  0
M  END
>  <ALOGPS_LOGP>  (1) 
3.36

>  <ALOGPS_LOGS>  (1) 
-4.44

>  <ALOGPS_SOLUBILITY>  (1) 
3.00e-02 g/l

>  <DATABASE_ID>  (1) 
DB00541

>  <DATABASE_NAME>  (1) 
drugbank

>  <DRUGBANK_ID>  (1) 
DB00541

>  <DRUG_GROUPS>  (1) 
approved; investigational

>  <EXACT_MASS>  (1) 
824.399644032

>  <FORMULA>  (1) 
C46H56N4O10

>  <GENERIC_NAME>  (1) 
Vincristine

>  <INCHI_IDENTIFIER>  (1) 
InChI=1S/C46H56N4O10/c1-7-42(55)22-28-23-45(40(53)58-5,36-30(14-18-48(24-28)25-42)29-12-9-10-13-33(29)47-36)32-20-31-34(21-35(32)57-4)50(26-51)38-44(31)16-19-49-17-11-15-43(8-2,37(44)49)39(60-27(3)52)46(38,56)41(54)59-6/h9-13,15,20-21,26,28,37-39,47,55-56H,7-8,14,16-19,22-25H2,1-6H3/t28-,37+,38-,39-,42+,43-,44-,45+,46+/m1/s1

>  <INCHI_KEY>  (1) 
OGWKCGZFUXNPDA-XQKSVPLYSA-N

>  <INTERNATIONAL_BRANDS>  (1) 
Alcavixin; Alcrist; Citomid; Cytocristin; Oncocristin; Oncovin; Oncrivin; Sindovin; Tevacristin; Vinces; Vincrisin; Vincristin; Vincrisul; Vinlon; Vinracine

>  <JCHEM_ACCEPTOR_COUNT>  (1) 
9

>  <JCHEM_AVERAGE_POLARIZABILITY>  (1) 
88.58705315627984

>  <JCHEM_BIOAVAILABILITY>  (1) 
1

>  <JCHEM_DONOR_COUNT>  (1) 
3

>  <JCHEM_FORMAL_CHARGE>  (1) 
0

>  <JCHEM_GHOSE_FILTER>  (1) 
0

>  <JCHEM_IUPAC>  (1) 
methyl (1R,9R,10S,11R,12R,19R)-11-(acetyloxy)-12-ethyl-4-[(13S,15S,17S)-17-ethyl-17-hydroxy-13-(methoxycarbonyl)-1,11-diazatetracyclo[13.3.1.0⁴,¹².0⁵,¹⁰]nonadeca-4(12),5,7,9-tetraen-13-yl]-8-formyl-10-hydroxy-5-methoxy-8,16-diazapentacyclo[10.6.1.0¹,⁹.0²,⁷.0¹⁶,¹⁹]nonadeca-2,4,6,13-tetraene-10-carboxylate

>  <JCHEM_LOGP>  (1) 
3.128179157333334

>  <JCHEM_MDDR_LIKE_RULE>  (1) 
1

>  <JCHEM_NUMBER_OF_RINGS>  (1) 
9

>  <JCHEM_PHYSIOLOGICAL_CHARGE>  (1) 
2

>  <JCHEM_PKA>  (1) 
14.405141780055722

>  <JCHEM_PKA_STRONGEST_ACIDIC>  (1) 
10.849017536198744

>  <JCHEM_PKA_STRONGEST_BASIC>  (1) 
8.662524172947244

>  <JCHEM_POLAR_SURFACE_AREA>  (1) 
171.17000000000002

>  <JCHEM_REFRACTIVITY>  (1) 
221.48039999999995

>  <JCHEM_ROTATABLE_BOND_COUNT>  (1) 
10

>  <JCHEM_RULE_OF_FIVE>  (1) 
0

>  <JCHEM_TRADITIONAL_IUPAC>  (1) 
vincristine

>  <JCHEM_VEBER_RULE>  (1) 
0

>  <MOLECULAR_WEIGHT>  (1) 
824.9576

>  <PRODUCTS>  (1) 
Marqibo; Oncovin Solution 1mg/ml; VinCRIStine Sulfate; Vincasar PFS; Vincristine Sulfate Inj 1mg/ml USP; Vincristine Sulfate Inj 5mg/vial USP; Vincristine Sulfate Injection; Vincristine Sulfate Injection USP

>  <SALTS>  (1) 
Vincristine Sulfate

>  <SECONDARY_ACCESSION_NUMBERS>  (1) 
APRD00495

>  <SMILES>  (1) 
[H][C@@]12N3CC[C@@]11C4=CC(=C(OC)C=C4N(C=O)[C@@]1([H])[C@](O)([C@H](OC(C)=O)[C@]2(CC)C=CC3)C(=O)OC)[C@]1(C[C@]2([H])CN(C[C@](O)(CC)C2)CCC2=C1NC1=CC=CC=C21)C(=O)OC

>  <SYNONYMS>  (1) 
22-Oxovincaleukoblastin; Leurocristine; Vincristin; Vincristina; Vincristinum

$$$$
