
     RDKit          2D

 63 66  0  0  1  0  0  0  0  0999 V2000
   14.4461   -6.8427    0.0000 N   0  0  0  0  0  0  0  0  0  0  0  0
   15.2307   -5.7629    0.0000 S   0  0  0  0  0  0  0  0  0  0  0  0
   16.4301   -6.8427    0.0000 C   0  0  0  0  0  0  0  0  0  0  0  0
   15.7156   -6.4303    0.0000 C   0  0  0  0  0  0  0  0  0  0  0  0
   16.4301   -6.0178    0.0000 C   0  0  0  0  0  0  0  0  0  0  0  0
   15.2307   -7.0977    0.0000 C   0  0  0  0  0  0  0  0  0  0  0  0
   16.2926   -8.0538    0.0000 O   0  0  0  0  0  0  0  0  0  0  0  0
   15.4856   -7.8823    0.0000 C   0  0  0  0  0  0  0  0  0  0  0  0
   14.9336   -8.4954    0.0000 O   0  0  0  0  0  0  0  0  0  0  0  0
   13.6211   -6.0178    0.0000 C   0  0  0  0  0  0  0  0  0  0  0  0
   12.9067   -5.6053    0.0000 N   0  0  0  0  0  0  0  0  0  0  0  0
   12.1922   -6.0178    0.0000 C   0  0  0  0  0  0  0  0  0  0  0  0
   12.1922   -6.8427    0.0000 O   0  0  0  0  0  0  0  0  0  0  0  0
   11.4778   -5.6053    0.0000 C   0  0  0  0  0  0  0  0  0  0  0  0
   13.6211   -6.8427    0.0000 C   0  0  0  0  0  0  0  0  0  0  0  0
   13.0378   -7.4261    0.0000 O   0  0  0  0  0  0  0  0  0  0  0  0
   14.4461   -6.0178    0.0000 C   0  0  0  0  0  0  0  0  0  0  0  0
   11.4779   -4.7803    0.0000 C   0  0  0  0  0  0  0  0  0  0  0  0
   10.7633   -6.0178    0.0000 N   0  0  0  0  0  0  0  0  0  0  0  0
   11.4779   -3.1303    0.0000 C   0  0  0  0  0  0  0  0  0  0  0  0
   10.7634   -3.5428    0.0000 C   0  0  0  0  0  0  0  0  0  0  0  0
   10.7634   -4.3678    0.0000 C   0  0  0  0  0  0  0  0  0  0  0  0
   12.1924   -4.3678    0.0000 C   0  0  0  0  0  0  0  0  0  0  0  0
   12.1924   -3.5428    0.0000 C   0  0  0  0  0  0  0  0  0  0  0  0
   10.0489   -5.6053    0.0000 C   0  0  0  0  0  0  0  0  0  0  0  0
   10.0489   -4.7803    0.0000 O   0  0  0  0  0  0  0  0  0  0  0  0
    9.3344   -6.0178    0.0000 N   0  0  0  0  0  0  0  0  0  0  0  0
    8.6199   -5.6053    0.0000 C   0  0  0  0  0  0  0  0  0  0  0  0
    7.9054   -6.0178    0.0000 C   0  0  0  0  0  0  0  0  0  0  0  0
    7.9054   -6.8428    0.0000 N   0  0  0  0  0  0  0  0  0  0  0  0
    8.6199   -7.2553    0.0000 C   0  0  0  0  0  0  0  0  0  0  0  0
    9.3344   -6.8428    0.0000 C   0  0  0  0  0  0  0  0  0  0  0  0
    8.6199   -4.7803    0.0000 O   0  0  0  0  0  0  0  0  0  0  0  0
    7.1910   -5.6053    0.0000 O   0  0  0  0  0  0  0  0  0  0  0  0
    7.1910   -7.2553    0.0000 C   0  0  0  0  0  0  0  0  0  0  0  0
    6.4765   -6.8428    0.0000 C   0  0  0  0  0  0  0  0  0  0  0  0
    0.0000    0.0000    0.0000 H   0  0  0  0  0  0  0  0  0  0  0  0
    0.0000    0.0000    0.0000 H   0  0  0  0  0  0  0  0  0  0  0  0
    0.0000    0.0000    0.0000 H   0  0  0  0  0  0  0  0  0  0  0  0
    0.0000    0.0000    0.0000 H   0  0  0  0  0  0  0  0  0  0  0  0
    0.0000    0.0000    0.0000 H   0  0  0  0  0  0  0  0  0  0  0  0
    0.0000    0.0000    0.0000 H   0  0  0  0  0  0  0  0  0  0  0  0
    0.0000    0.0000    0.0000 H   0  0  0  0  0  0  0  0  0  0  0  0
    0.0000    0.0000    0.0000 H   0  0  0  0  0  0  0  0  0  0  0  0
    0.0000    0.0000    0.0000 H   0  0  0  0  0  0  0  0  0  0  0  0
    0.0000    0.0000    0.0000 H   0  0  0  0  0  0  0  0  0  0  0  0
    0.0000    0.0000    0.0000 H   0  0  0  0  0  0  0  0  0  0  0  0
    0.0000    0.0000    0.0000 H   0  0  0  0  0  0  0  0  0  0  0  0
    0.0000    0.0000    0.0000 H   0  0  0  0  0  0  0  0  0  0  0  0
    0.0000    0.0000    0.0000 H   0  0  0  0  0  0  0  0  0  0  0  0
    0.0000    0.0000    0.0000 H   0  0  0  0  0  0  0  0  0  0  0  0
    0.0000    0.0000    0.0000 H   0  0  0  0  0  0  0  0  0  0  0  0
    0.0000    0.0000    0.0000 H   0  0  0  0  0  0  0  0  0  0  0  0
    0.0000    0.0000    0.0000 H   0  0  0  0  0  0  0  0  0  0  0  0
    0.0000    0.0000    0.0000 H   0  0  0  0  0  0  0  0  0  0  0  0
    0.0000    0.0000    0.0000 H   0  0  0  0  0  0  0  0  0  0  0  0
    0.0000    0.0000    0.0000 H   0  0  0  0  0  0  0  0  0  0  0  0
    0.0000    0.0000    0.0000 H   0  0  0  0  0  0  0  0  0  0  0  0
    0.0000    0.0000    0.0000 H   0  0  0  0  0  0  0  0  0  0  0  0
    0.0000    0.0000    0.0000 H   0  0  0  0  0  0  0  0  0  0  0  0
    0.0000    0.0000    0.0000 H   0  0  0  0  0  0  0  0  0  0  0  0
    0.0000    0.0000    0.0000 H   0  0  0  0  0  0  0  0  0  0  0  0
    0.0000    0.0000    0.0000 H   0  0  0  0  0  0  0  0  0  0  0  0
 17 10  1  0
 10 15  1  0
 15  1  1  0
  1  6  1  0
 17  1  1  0
  2 17  1  0
  2  4  1  0
  6  4  1  0
  4  3  1  0
  4  5  1  0
  6  8  1  1
  8  7  1  0
  8  9  2  0
 10 11  1  1
 11 12  1  0
 14 12  1  1
 12 13  2  0
 15 16  2  0
 14 18  1  0
 14 19  1  0
 22 18  2  0
 18 23  1  0
 20 21  2  0
 21 22  1  0
 23 24  2  0
 20 24  1  0
 19 25  1  0
 25 26  2  0
 25 27  1  0
 32 27  1  0
 28 27  1  0
 28 29  1  0
 29 30  1  0
 30 31  1  0
 31 32  1  0
 28 33  2  0
 29 34  2  0
 30 35  1  0
 35 36  1  0
  3 37  1  0
  3 38  1  0
  3 39  1  0
  5 40  1  0
  5 41  1  0
  5 42  1  0
  6 43  1  0
  7 44  1  0
 10 45  1  0
 11 46  1  0
 14 47  1  0
 17 48  1  6
 19 49  1  0
 20 50  1  0
 21 51  1  0
 22 52  1  0
 23 53  1  0
 24 54  1  0
 31 55  1  0
 31 56  1  0
 32 57  1  0
 32 58  1  0
 35 59  1  0
 35 60  1  0
 36 61  1  0
 36 62  1  0
 36 63  1  0
M  END
>  <ALOGPS_LOGP>  (1) 
0.67

>  <ALOGPS_LOGS>  (1) 
-3.64

>  <ALOGPS_SOLUBILITY>  (1) 
1.19e-01 g/l

>  <DATABASE_ID>  (1) 
DB00319

>  <DATABASE_NAME>  (1) 
drugbank

>  <DRUGBANK_ID>  (1) 
DB00319

>  <DRUG_GROUPS>  (1) 
approved

>  <EXACT_MASS>  (1) 
517.163118933

>  <FORMULA>  (1) 
C23H27N5O7S

>  <GENERIC_NAME>  (1) 
Piperacillin

>  <INCHI_IDENTIFIER>  (1) 
InChI=1S/C23H27N5O7S/c1-4-26-10-11-27(19(32)18(26)31)22(35)25-13(12-8-6-5-7-9-12)16(29)24-14-17(30)28-15(21(33)34)23(2,3)36-20(14)28/h5-9,13-15,20H,4,10-11H2,1-3H3,(H,24,29)(H,25,35)(H,33,34)/t13-,14-,15+,20-/m1/s1

>  <INCHI_KEY>  (1) 
IVBHGBMCVLDMKU-GXNBUGAJSA-N

>  <INTERNATIONAL_BRANDS>  (1) 
Ecosette; Farecillin; Penmalin; Pentcillin; Peracin; Piciliant; Picillin; Picillina; Piperac; Pipracil; Stepten; Tronazam

>  <JCHEM_ACCEPTOR_COUNT>  (1) 
7

>  <JCHEM_AVERAGE_POLARIZABILITY>  (1) 
51.770624623707036

>  <JCHEM_BIOAVAILABILITY>  (1) 
1

>  <JCHEM_DONOR_COUNT>  (1) 
3

>  <JCHEM_FORMAL_CHARGE>  (1) 
0

>  <JCHEM_GHOSE_FILTER>  (1) 
0

>  <JCHEM_IUPAC>  (1) 
(2S,5R,6R)-6-[(2R)-2-[(4-ethyl-2,3-dioxopiperazine-1-carbonyl)amino]-2-phenylacetamido]-3,3-dimethyl-7-oxo-4-thia-1-azabicyclo[3.2.0]heptane-2-carboxylic acid

>  <JCHEM_LOGP>  (1) 
-0.2584901896666671

>  <JCHEM_MDDR_LIKE_RULE>  (1) 
1

>  <JCHEM_NUMBER_OF_RINGS>  (1) 
4

>  <JCHEM_PHYSIOLOGICAL_CHARGE>  (1) 
-1

>  <JCHEM_PKA>  (1) 
11.595441870353845

>  <JCHEM_PKA_STRONGEST_ACIDIC>  (1) 
3.4850654965939314

>  <JCHEM_PKA_STRONGEST_BASIC>  (1) 
-4.256401656507363

>  <JCHEM_POLAR_SURFACE_AREA>  (1) 
156.42999999999998

>  <JCHEM_REFRACTIVITY>  (1) 
126.29669999999999

>  <JCHEM_ROTATABLE_BOND_COUNT>  (1) 
6

>  <JCHEM_RULE_OF_FIVE>  (1) 
0

>  <JCHEM_TRADITIONAL_IUPAC>  (1) 
piperacillin

>  <JCHEM_VEBER_RULE>  (1) 
0

>  <MOLECULAR_WEIGHT>  (1) 
517.555

>  <PRODUCTS>  (1) 
Jamp-pip/taz; Mylan-piperacillin and Tazobactam for Injection; Piperacillin / Tazobactam Powder for Injection; Piperacillin Sodium/tazobactam Sodium Powder for Injection; Piperacillin and Tazobactam; Piperacillin and Tazobactam for Injection; Piperacillin for Injection; Piperacillin, Tazobactam; Piperacillin/tazobactam for Injection; Pipracil Inj 2gm/vial; Pipracil Inj 3gm/vial; Pipracil Inj 4gm/vial; Pipracil Pharmacy Bulk 40gm/vial; Pipracil Pharmacy Bulk Vial-pws IV 40g/vial; Pipracil-pws IV Im 2g/vial; Pipracil-pws IV Im 3g/vial; Pipracil-pws Im IV 4g/vial; Tazocin; Tazocin Pws IV 2g Piperacillin-.25g Tazobac.; Tazocin Pws IV 3g Piperacillin-.375g Tazobac; Tazocin Pws IV 4g Piperacillin-.5g Tazobac.; Vpi-piperacillin and Tazobactam for Injection; Zosyn; Zosyn Pharmacy Bulk Package; Zosyn in Galaxy Containers

>  <SALTS>  (1) 
Piperacillin Sodium

>  <SECONDARY_ACCESSION_NUMBERS>  (1) 
APRD00325

>  <SMILES>  (1) 
[H][C@]12SC(C)(C)[C@@H](N1C(=O)[C@H]2NC(=O)[C@H](NC(=O)N1CCN(CC)C(=O)C1=O)C1=CC=CC=C1)C(O)=O

>  <SYNONYMS>  (1) 
Piperacilina; Piperacillin; Piperacillin Anhydrous; Piperacillina; PipÃ©racilline; Piperacillinum

$$$$
