718
     RDKit          2D

 66 67  0  0  0  0  0  0  0  0999 V2000
    6.2431   -0.8927    0.0000 P   0  0  0  0  0  0  0  0  0  0  0  0
    5.1795    0.0615    0.0000 O   0  0  0  0  0  0  0  0  0  0  0  0
    7.9816    0.4271    0.0000 O   0  0  0  0  0  0  0  0  0  0  0  0
    7.5630   -2.6313    0.0000 O   0  0  0  0  0  0  0  0  0  0  0  0
    7.0273   -0.6364    0.0000 O   0  0  0  0  0  0  0  0  0  0  0  0
    6.4994   -1.6769    0.0000 O   0  0  0  0  0  0  0  0  0  0  0  0
    7.5376    1.7854    0.0000 O   0  0  0  0  0  0  0  0  0  0  0  0
    8.9212   -2.1874    0.0000 O   0  0  0  0  0  0  0  0  0  0  0  0
    5.4589   -1.1491    0.0000 O   0  0  0  0  0  0  0  0  0  0  0  0
    3.8597    1.8001    0.0000 N   0  0  0  0  0  0  0  0  0  0  0  0
    3.8597    3.1280    0.0000 N   0  0  0  0  0  0  0  0  0  0  0  0
    2.3645    1.6390    0.0000 N   0  0  0  0  0  0  0  0  0  0  0  0
    1.6500    2.8765    0.0000 N   0  0  0  0  0  0  0  0  0  0  0  0
    2.3645    4.1140    0.0000 N   0  0  0  0  0  0  0  0  0  0  0  0
    8.9360    1.4907    0.0000 C   0  0  0  0  0  0  0  0  0  0  0  0
    8.6266   -3.5856    0.0000 C   0  0  0  0  0  0  0  0  0  0  0  0
    9.1922    0.7065    0.0000 C   0  0  0  0  0  0  0  0  0  0  0  0
    8.6796    2.2749    0.0000 C   0  0  0  0  0  0  0  0  0  0  0  0
    9.7201    1.7470    0.0000 C   0  0  0  0  0  0  0  0  0  0  0  0
    7.8423   -3.8419    0.0000 C   0  0  0  0  0  0  0  0  0  0  0  0
    9.4108   -3.3293    0.0000 C   0  0  0  0  0  0  0  0  0  0  0  0
    8.8828   -4.3698    0.0000 C   0  0  0  0  0  0  0  0  0  0  0  0
    8.1517    1.2344    0.0000 C   0  0  0  0  0  0  0  0  0  0  0  0
    8.3703   -2.8014    0.0000 C   0  0  0  0  0  0  0  0  0  0  0  0
    4.1159    1.0159    0.0000 C   0  0  0  0  0  0  0  0  0  0  0  0
    4.9232    0.8458    0.0000 C   0  0  0  0  0  0  0  0  0  0  0  0
    5.9868   -0.1086    0.0000 C   0  0  0  0  0  0  0  0  0  0  0  0
    3.0790    2.0515    0.0000 C   0  0  0  0  0  0  0  0  0  0  0  0
    7.1974    0.1709    0.0000 C   0  0  0  0  0  0  0  0  0  0  0  0
    7.3066   -1.8470    0.0000 C   0  0  0  0  0  0  0  0  0  0  0  0
    3.0790    2.8765    0.0000 C   0  0  0  0  0  0  0  0  0  0  0  0
    4.3411    2.4640    0.0000 C   0  0  0  0  0  0  0  0  0  0  0  0
    2.3645    3.2890    0.0000 C   0  0  0  0  0  0  0  0  0  0  0  0
    1.6500    2.0515    0.0000 C   0  0  0  0  0  0  0  0  0  0  0  0
    0.0000    0.0000    0.0000 H   0  0  0  0  0  0  0  0  0  0  0  0
    0.0000    0.0000    0.0000 H   0  0  0  0  0  0  0  0  0  0  0  0
    0.0000    0.0000    0.0000 H   0  0  0  0  0  0  0  0  0  0  0  0
    0.0000    0.0000    0.0000 H   0  0  0  0  0  0  0  0  0  0  0  0
    0.0000    0.0000    0.0000 H   0  0  0  0  0  0  0  0  0  0  0  0
    0.0000    0.0000    0.0000 H   0  0  0  0  0  0  0  0  0  0  0  0
    0.0000    0.0000    0.0000 H   0  0  0  0  0  0  0  0  0  0  0  0
    0.0000    0.0000    0.0000 H   0  0  0  0  0  0  0  0  0  0  0  0
    0.0000    0.0000    0.0000 H   0  0  0  0  0  0  0  0  0  0  0  0
    0.0000    0.0000    0.0000 H   0  0  0  0  0  0  0  0  0  0  0  0
    0.0000    0.0000    0.0000 H   0  0  0  0  0  0  0  0  0  0  0  0
    0.0000    0.0000    0.0000 H   0  0  0  0  0  0  0  0  0  0  0  0
    0.0000    0.0000    0.0000 H   0  0  0  0  0  0  0  0  0  0  0  0
    0.0000    0.0000    0.0000 H   0  0  0  0  0  0  0  0  0  0  0  0
    0.0000    0.0000    0.0000 H   0  0  0  0  0  0  0  0  0  0  0  0
    0.0000    0.0000    0.0000 H   0  0  0  0  0  0  0  0  0  0  0  0
    0.0000    0.0000    0.0000 H   0  0  0  0  0  0  0  0  0  0  0  0
    0.0000    0.0000    0.0000 H   0  0  0  0  0  0  0  0  0  0  0  0
    0.0000    0.0000    0.0000 H   0  0  0  0  0  0  0  0  0  0  0  0
    0.0000    0.0000    0.0000 H   0  0  0  0  0  0  0  0  0  0  0  0
    0.0000    0.0000    0.0000 H   0  0  0  0  0  0  0  0  0  0  0  0
    0.0000    0.0000    0.0000 H   0  0  0  0  0  0  0  0  0  0  0  0
    0.0000    0.0000    0.0000 H   0  0  0  0  0  0  0  0  0  0  0  0
    0.0000    0.0000    0.0000 H   0  0  0  0  0  0  0  0  0  0  0  0
    0.0000    0.0000    0.0000 H   0  0  0  0  0  0  0  0  0  0  0  0
    0.0000    0.0000    0.0000 H   0  0  0  0  0  0  0  0  0  0  0  0
    0.0000    0.0000    0.0000 H   0  0  0  0  0  0  0  0  0  0  0  0
    0.0000    0.0000    0.0000 H   0  0  0  0  0  0  0  0  0  0  0  0
    0.0000    0.0000    0.0000 H   0  0  0  0  0  0  0  0  0  0  0  0
    0.0000    0.0000    0.0000 H   0  0  0  0  0  0  0  0  0  0  0  0
    0.0000    0.0000    0.0000 H   0  0  0  0  0  0  0  0  0  0  0  0
    0.0000    0.0000    0.0000 H   0  0  0  0  0  0  0  0  0  0  0  0
  1  5  1  0
  1  6  1  0
  1  9  2  0
  1 27  1  0
  2 26  1  0
  2 27  1  0
  3 23  1  0
  3 29  1  0
  4 24  1  0
  4 30  1  0
  5 29  1  0
  6 30  1  0
  7 23  2  0
  8 24  2  0
 10 25  1  0
 10 28  1  0
 10 32  1  0
 11 31  1  0
 11 32  2  0
 12 28  2  0
 12 34  1  0
 13 33  1  0
 13 34  2  0
 14 33  1  0
 15 17  1  0
 15 18  1  0
 15 19  1  0
 15 23  1  0
 16 20  1  0
 16 21  1  0
 16 22  1  0
 16 24  1  0
 25 26  1  0
 28 31  1  0
 31 33  2  0
 14 35  1  0
 14 36  1  0
 17 37  1  0
 17 38  1  0
 17 39  1  0
 18 40  1  0
 18 41  1  0
 18 42  1  0
 19 43  1  0
 19 44  1  0
 19 45  1  0
 20 46  1  0
 20 47  1  0
 20 48  1  0
 21 49  1  0
 21 50  1  0
 21 51  1  0
 22 52  1  0
 22 53  1  0
 22 54  1  0
 25 55  1  0
 25 56  1  0
 26 57  1  0
 26 58  1  0
 27 59  1  0
 27 60  1  0
 29 61  1  0
 29 62  1  0
 30 63  1  0
 30 64  1  0
 32 65  1  0
 34 66  1  0
M  END
>  <ALOGPS_LOGP>  (1) 
1.49

>  <ALOGPS_LOGS>  (1) 
-2.90

>  <ALOGPS_SOLUBILITY>  (1) 
6.33e-01 g/l

>  <DATABASE_ID>  (1) 
DB00718

>  <DATABASE_NAME>  (1) 
drugbank

>  <DRUGBANK_ID>  (1) 
DB00718

>  <DRUG_GROUPS>  (1) 
approved; investigational

>  <EXACT_MASS>  (1) 
501.198849537

>  <FORMULA>  (1) 
C20H32N5O8P

>  <GENERIC_NAME>  (1) 
Adefovir Dipivoxil

>  <INCHI_IDENTIFIER>  (1) 
InChI=1S/C20H32N5O8P/c1-19(2,3)17(26)30-11-32-34(28,33-12-31-18(27)20(4,5)6)13-29-8-7-25-10-24-14-15(21)22-9-23-16(14)25/h9-10H,7-8,11-13H2,1-6H3,(H2,21,22,23)

>  <INCHI_KEY>  (1) 
WOZSCQDILHKSGG-UHFFFAOYSA-N

>  <INTERNATIONAL_BRANDS>  (1) 
A Di Xian; A Gan Ding; Adesera; Adfovir; Ailuwei; Antiva; Biovir; Dai Ding; Dinghe; Infovir; Jiule; Lifuzhi; Ming Zheng; Nafasera; Preveon; Pymefovir; Xinfunuo; Yilaifen

>  <JCHEM_ACCEPTOR_COUNT>  (1) 
8

>  <JCHEM_AVERAGE_POLARIZABILITY>  (1) 
49.001878806882644

>  <JCHEM_BIOAVAILABILITY>  (1) 
0

>  <JCHEM_DONOR_COUNT>  (1) 
1

>  <JCHEM_FORMAL_CHARGE>  (1) 
0

>  <JCHEM_GHOSE_FILTER>  (1) 
0

>  <JCHEM_IUPAC>  (1) 
[({[2-(6-amino-9H-purin-9-yl)ethoxy]methyl}({[(2,2-dimethylpropanoyl)oxy]methoxy})phosphoryl)oxy]methyl 2,2-dimethylpropanoate

>  <JCHEM_LOGP>  (1) 
3.058480914000002

>  <JCHEM_MDDR_LIKE_RULE>  (1) 
0

>  <JCHEM_NUMBER_OF_RINGS>  (1) 
2

>  <JCHEM_PHYSIOLOGICAL_CHARGE>  (1) 
0

>  <JCHEM_PKA_STRONGEST_ACIDIC>  (1) 
18.588059554251494

>  <JCHEM_PKA_STRONGEST_BASIC>  (1) 
5.125871848290399

>  <JCHEM_POLAR_SURFACE_AREA>  (1) 
166.98000000000005

>  <JCHEM_REFRACTIVITY>  (1) 
119.9922

>  <JCHEM_ROTATABLE_BOND_COUNT>  (1) 
15

>  <JCHEM_RULE_OF_FIVE>  (1) 
0

>  <JCHEM_TRADITIONAL_IUPAC>  (1) 
adefovir dipivoxil

>  <JCHEM_VEBER_RULE>  (1) 
0

>  <MOLECULAR_WEIGHT>  (1) 
501.4705

>  <PRODUCTS>  (1) 
Adefovir Dipivoxil; Apo-adefovir; Hepsera

>  <SECONDARY_ACCESSION_NUMBERS>  (1) 
APRD00781

>  <SMILES>  (1) 
CC(C)(C)C(=O)OCOP(=O)(COCCN1C=NC2=C(N)N=CN=C12)OCOC(=O)C(C)(C)C

>  <SYNONYMS>  (1) 
Adefovir di(pivaloyloxymethyl) ester; Adefovir Pivoxil; bis-POM PMEA

$$$$
