378
     RDKit          2D

 51 54  0  0  1  0  0  0  0  0999 V2000
    6.5848    2.1027    0.0000 O   0  0  0  0  0  0  0  0  0  0  0  0
    1.6499   -2.0649    0.0000 O   0  0  0  0  0  0  0  0  0  0  0  0
    6.0989    0.4532    0.0000 C   0  0  0  0  0  0  0  0  0  0  0  0
    6.0989   -0.3718    0.0000 C   0  0  0  0  0  0  0  0  0  0  0  0
    5.3846   -0.7843    0.0000 C   0  0  0  0  0  0  0  0  0  0  0  0
    4.6700   -0.3718    0.0000 C   0  0  0  0  0  0  0  0  0  0  0  0
    6.8795    0.7046    0.0000 C   0  0  0  0  0  0  0  0  0  0  0  0
    5.3846    0.8656    0.0000 C   0  0  0  0  0  0  0  0  0  0  0  0
    6.8795   -0.6232    0.0000 C   0  0  0  0  0  0  0  0  0  0  0  0
    4.6700    0.4532    0.0000 C   0  0  0  0  0  0  0  0  0  0  0  0
    3.9194   -0.7899    0.0000 C   0  0  0  0  0  0  0  0  0  0  0  0
    7.3609    0.0407    0.0000 C   0  0  0  0  0  0  0  0  0  0  0  0
    6.0989    1.2781    0.0000 C   0  0  0  0  0  0  0  0  0  0  0  0
    5.3978   -1.6435    0.0000 C   0  0  0  0  0  0  0  0  0  0  0  0
    3.9128   -1.6492    0.0000 C   0  0  0  0  0  0  0  0  0  0  0  0
    3.1548   -0.3246    0.0000 C   0  0  0  0  0  0  0  0  0  0  0  0
    7.1359    1.4887    0.0000 C   0  0  0  0  0  0  0  0  0  0  0  0
    3.9257    0.0350    0.0000 C   0  0  0  0  0  0  0  0  0  0  0  0
    4.6569   -2.0789    0.0000 C   0  0  0  0  0  0  0  0  0  0  0  0
    2.3728   -0.7602    0.0000 C   0  0  0  0  0  0  0  0  0  0  0  0
    3.1411   -2.1027    0.0000 C   0  0  0  0  0  0  0  0  0  0  0  0
    2.3659   -1.6552    0.0000 C   0  0  0  0  0  0  0  0  0  0  0  0
    7.9430    1.6588    0.0000 C   0  0  0  0  0  0  0  0  0  0  0  0
    0.0000    0.0000    0.0000 H   0  0  0  0  0  0  0  0  0  0  0  0
    0.0000    0.0000    0.0000 H   0  0  0  0  0  0  0  0  0  0  0  0
    0.0000    0.0000    0.0000 H   0  0  0  0  0  0  0  0  0  0  0  0
    0.0000    0.0000    0.0000 H   0  0  0  0  0  0  0  0  0  0  0  0
    0.0000    0.0000    0.0000 H   0  0  0  0  0  0  0  0  0  0  0  0
    0.0000    0.0000    0.0000 H   0  0  0  0  0  0  0  0  0  0  0  0
    0.0000    0.0000    0.0000 H   0  0  0  0  0  0  0  0  0  0  0  0
    0.0000    0.0000    0.0000 H   0  0  0  0  0  0  0  0  0  0  0  0
    0.0000    0.0000    0.0000 H   0  0  0  0  0  0  0  0  0  0  0  0
    0.0000    0.0000    0.0000 H   0  0  0  0  0  0  0  0  0  0  0  0
    0.0000    0.0000    0.0000 H   0  0  0  0  0  0  0  0  0  0  0  0
    0.0000    0.0000    0.0000 H   0  0  0  0  0  0  0  0  0  0  0  0
    0.0000    0.0000    0.0000 H   0  0  0  0  0  0  0  0  0  0  0  0
    0.0000    0.0000    0.0000 H   0  0  0  0  0  0  0  0  0  0  0  0
    0.0000    0.0000    0.0000 H   0  0  0  0  0  0  0  0  0  0  0  0
    0.0000    0.0000    0.0000 H   0  0  0  0  0  0  0  0  0  0  0  0
    0.0000    0.0000    0.0000 H   0  0  0  0  0  0  0  0  0  0  0  0
    0.0000    0.0000    0.0000 H   0  0  0  0  0  0  0  0  0  0  0  0
    0.0000    0.0000    0.0000 H   0  0  0  0  0  0  0  0  0  0  0  0
    0.0000    0.0000    0.0000 H   0  0  0  0  0  0  0  0  0  0  0  0
    0.0000    0.0000    0.0000 H   0  0  0  0  0  0  0  0  0  0  0  0
    0.0000    0.0000    0.0000 H   0  0  0  0  0  0  0  0  0  0  0  0
    0.0000    0.0000    0.0000 H   0  0  0  0  0  0  0  0  0  0  0  0
    0.0000    0.0000    0.0000 H   0  0  0  0  0  0  0  0  0  0  0  0
    0.0000    0.0000    0.0000 H   0  0  0  0  0  0  0  0  0  0  0  0
    0.0000    0.0000    0.0000 H   0  0  0  0  0  0  0  0  0  0  0  0
    0.0000    0.0000    0.0000 H   0  0  0  0  0  0  0  0  0  0  0  0
    0.0000    0.0000    0.0000 H   0  0  0  0  0  0  0  0  0  0  0  0
  1 17  2  0
  2 22  2  0
  3  4  1  0
  3  7  1  0
  3  8  1  0
  3 13  1  1
  4  5  1  0
  4  9  1  0
  5  6  1  0
  5 14  1  0
  6 10  1  0
  6 11  1  0
  7 12  1  0
  7 17  1  1
  8 10  1  0
  9 12  1  0
 11 15  1  0
 11 16  1  0
 11 18  1  6
 14 19  2  0
 15 19  1  0
 15 21  2  0
 16 20  1  0
 17 23  1  0
 20 22  1  0
 21 22  1  0
  4 24  1  6
  5 25  1  1
  6 26  1  1
  7 27  1  0
  8 28  1  0
  8 29  1  0
  9 30  1  0
  9 31  1  0
 10 32  1  0
 10 33  1  0
 12 34  1  0
 12 35  1  0
 13 36  1  0
 13 37  1  0
 13 38  1  0
 14 39  1  0
 16 40  1  0
 16 41  1  0
 18 42  1  0
 18 43  1  0
 18 44  1  0
 19 45  1  0
 20 46  1  0
 20 47  1  0
 21 48  1  0
 23 49  1  0
 23 50  1  0
 23 51  1  0
M  END
>  <ALOGPS_LOGP>  (1) 
3.27

>  <ALOGPS_LOGS>  (1) 
-4.81

>  <ALOGPS_SOLUBILITY>  (1) 
4.86e-03 g/l

>  <DATABASE_ID>  (1) 
DB00378

>  <DATABASE_NAME>  (1) 
drugbank

>  <DRUGBANK_ID>  (1) 
DB00378

>  <DRUG_GROUPS>  (1) 
approved; investigational; withdrawn

>  <EXACT_MASS>  (1) 
312.20893014

>  <FORMULA>  (1) 
C21H28O2

>  <GENERIC_NAME>  (1) 
Dydrogesterone

>  <INCHI_IDENTIFIER>  (1) 
InChI=1S/C21H28O2/c1-13(22)17-6-7-18-16-5-4-14-12-15(23)8-10-20(14,2)19(16)9-11-21(17,18)3/h4-5,12,16-19H,6-11H2,1-3H3/t16-,17+,18-,19+,20+,21+/m0/s1

>  <INCHI_KEY>  (1) 
JGMOKGBVKVMRFX-HQZYFCCVSA-N

>  <INTERNATIONAL_BRANDS>  (1) 
Dabroston; Dufaston; Duphaston; Terolut

>  <JCHEM_ACCEPTOR_COUNT>  (1) 
2

>  <JCHEM_AVERAGE_POLARIZABILITY>  (1) 
36.389065588816806

>  <JCHEM_BIOAVAILABILITY>  (1) 
1

>  <JCHEM_DONOR_COUNT>  (1) 
0

>  <JCHEM_FORMAL_CHARGE>  (1) 
0

>  <JCHEM_GHOSE_FILTER>  (1) 
1

>  <JCHEM_IUPAC>  (1) 
(1R,2S,10S,11S,14S,15S)-14-acetyl-2,15-dimethyltetracyclo[8.7.0.0²,⁷.0¹¹,¹⁵]heptadeca-6,8-dien-5-one

>  <JCHEM_LOGP>  (1) 
3.7866827440000006

>  <JCHEM_MDDR_LIKE_RULE>  (1) 
0

>  <JCHEM_NUMBER_OF_RINGS>  (1) 
4

>  <JCHEM_PHYSIOLOGICAL_CHARGE>  (1) 
0

>  <JCHEM_PKA_STRONGEST_ACIDIC>  (1) 
19.291890325972762

>  <JCHEM_PKA_STRONGEST_BASIC>  (1) 
-4.772697382905662

>  <JCHEM_POLAR_SURFACE_AREA>  (1) 
34.14

>  <JCHEM_REFRACTIVITY>  (1) 
93.8219

>  <JCHEM_ROTATABLE_BOND_COUNT>  (1) 
1

>  <JCHEM_RULE_OF_FIVE>  (1) 
1

>  <JCHEM_TRADITIONAL_IUPAC>  (1) 
dydrogesterone

>  <JCHEM_VEBER_RULE>  (1) 
1

>  <MOLECULAR_WEIGHT>  (1) 
312.4458

>  <SECONDARY_ACCESSION_NUMBERS>  (1) 
APRD00941

>  <SMILES>  (1) 
[H][C@@]12CC[C@H](C(C)=O)[C@@]1(C)CC[C@]1([H])[C@@]2([H])C=CC2=CC(=O)CC[C@@]12C

>  <SYNONYMS>  (1) 
(9β,10α)-pregna-4,6-diene-3,20-dione; 10alpha-Isopregnenone; 9β,10α-pregna-4,6-diene-3,20-dione; Didrogesterone; Dydrogesterona; Dydrogestérone ; Dydrogesterone; Dydrogesteronum; Gestatron; Hydrogesterone; Hydrogestrone; Isopregnenone

$$$$
