658
     RDKit          2D

 21 20  0  0  1  0  0  0  0  0999 V2000
    0.1473    0.8043    0.0000 Cl  0  0  0  0  0  0  0  0  0  0  0  0
    1.9889    1.5189    0.0000 O   0  0  0  0  0  0  0  0  0  0  0  0
    0.4430    3.6804    0.0000 N   0  0  0  0  0  0  0  0  0  0  0  0
    1.5764    0.8043    0.0000 C   0  0  0  0  0  0  0  0  0  0  0  0
    2.4014    0.8043    0.0000 C   0  0  0  0  0  0  0  0  0  0  0  0
    0.8619    0.3918    0.0000 C   0  0  0  0  0  0  0  0  0  0  0  0
    1.1575    4.0929    0.0000 C   0  0  0  0  0  0  0  0  0  0  0  0
    1.8720    3.6804    0.0000 C   0  0  0  0  0  0  0  0  0  0  0  0
    2.5864    4.0929    0.0000 C   0  0  0  0  0  0  0  0  0  0  0  0
    0.0000    0.0000    0.0000 H   0  0  0  0  0  0  0  0  0  0  0  0
    0.0000    0.0000    0.0000 H   0  0  0  0  0  0  0  0  0  0  0  0
    0.0000    0.0000    0.0000 H   0  0  0  0  0  0  0  0  0  0  0  0
    0.0000    0.0000    0.0000 H   0  0  0  0  0  0  0  0  0  0  0  0
    0.0000    0.0000    0.0000 H   0  0  0  0  0  0  0  0  0  0  0  0
    0.0000    0.0000    0.0000 H   0  0  0  0  0  0  0  0  0  0  0  0
    0.0000    0.0000    0.0000 H   0  0  0  0  0  0  0  0  0  0  0  0
    0.0000    0.0000    0.0000 H   0  0  0  0  0  0  0  0  0  0  0  0
    0.0000    0.0000    0.0000 H   0  0  0  0  0  0  0  0  0  0  0  0
    0.0000    0.0000    0.0000 H   0  0  0  0  0  0  0  0  0  0  0  0
    0.0000    0.0000    0.0000 H   0  0  0  0  0  0  0  0  0  0  0  0
    0.0000    0.0000    0.0000 H   0  0  0  0  0  0  0  0  0  0  0  0
  1  6  1  0
  2  4  1  0
  2  5  1  0
  3  7  1  0
  4  5  1  0
  4  6  1  0
  7  8  1  0
  8  9  2  3
  3 10  1  0
  3 11  1  0
  4 12  1  0
  5 13  1  0
  5 14  1  0
  6 15  1  0
  6 16  1  0
  7 17  1  0
  7 18  1  0
  8 19  1  0
  9 20  1  0
  9 21  1  0
M  END
>  <DATABASE_ID>  (1) 
DB00658

>  <DATABASE_NAME>  (1) 
drugbank

>  <DRUGBANK_ID>  (1) 
DB00658

>  <DRUG_GROUPS>  (1) 
approved

>  <EXACT_MASS>  (1) 
149.060741718

>  <FORMULA>  (1) 
C6H12ClNO

>  <GENERIC_NAME>  (1) 
Sevelamer

>  <INCHI_IDENTIFIER>  (1) 
InChI=1S/C3H5ClO.C3H7N/c4-1-3-2-5-3;1-2-3-4/h3H,1-2H2;2H,1,3-4H2

>  <INCHI_KEY>  (1) 
ZNSIZMQNQCNRBW-UHFFFAOYSA-N

>  <INTERNATIONAL_BRANDS>  (1) 
Phosblock

>  <JCHEM_ACCEPTOR_COUNT>  (1) 
1

>  <JCHEM_AVERAGE_POLARIZABILITY>  (1) 
8.378712225429409

>  <JCHEM_BIOAVAILABILITY>  (1) 
1

>  <JCHEM_DONOR_COUNT>  (1) 
0

>  <JCHEM_FORMAL_CHARGE>  (1) 
0

>  <JCHEM_GHOSE_FILTER>  (1) 
0

>  <JCHEM_IUPAC>  (1) 
2-(chloromethyl)oxirane; prop-2-en-1-amine

>  <JCHEM_LOGP>  (1) 
0.6772814056666667

>  <JCHEM_MDDR_LIKE_RULE>  (1) 
0

>  <JCHEM_NUMBER_OF_RINGS>  (1) 
1

>  <JCHEM_PHYSIOLOGICAL_CHARGE>  (1) 
0

>  <JCHEM_PKA_STRONGEST_BASIC>  (1) 
-4.187369150675658

>  <JCHEM_POLAR_SURFACE_AREA>  (1) 
12.53

>  <JCHEM_REFRACTIVITY>  (1) 
20.057

>  <JCHEM_ROTATABLE_BOND_COUNT>  (1) 
2

>  <JCHEM_RULE_OF_FIVE>  (1) 
1

>  <JCHEM_TRADITIONAL_IUPAC>  (1) 
allylamine; epichlorohydrin

>  <JCHEM_VEBER_RULE>  (1) 
1

>  <MOLECULAR_WEIGHT>  (1) 
149.619

>  <PRODUCTS>  (1) 
Accel-sevelamer; Renagel; Renvela; Sevelamer Carbonate; Sevelamer Carbonate Zentiva; Sevelamer carbonate; Tasermity

>  <SALTS>  (1) 
Sevelamer carbonate; Sevelamer hydrochloride

>  <SECONDARY_ACCESSION_NUMBERS>  (1) 
APRD01226

>  <SMILES>  (1) 
NCC=C.ClCC1CO1

>  <SYNONYMS>  (1) 
Sevelamer; Sévélamer; Sevelamero; Sevelamerum

$$$$
