
     RDKit          2D

 55 59  0  0  0  0  0  0  0  0999 V2000
    5.9083   -7.7517    0.0000 C   0  0  0  0  0  0  0  0  0  0  0  0
    5.1986   -7.3311    0.0000 N   0  0  0  0  0  0  0  0  0  0  0  0
    5.9083   -8.5666    0.0000 C   0  0  0  0  0  0  0  0  0  0  0  0
    6.6443   -7.3311    0.0000 C   0  0  0  0  0  0  0  0  0  0  0  0
    5.1986   -8.9872    0.0000 N   0  0  0  0  0  0  0  0  0  0  0  0
    7.3277   -8.5666    0.0000 C   0  0  0  0  0  0  0  0  0  0  0  0
    7.3277   -7.7517    0.0000 C   0  0  0  0  0  0  0  0  0  0  0  0
    6.6443   -8.9872    0.0000 C   0  0  0  0  0  0  0  0  0  0  0  0
    4.4625   -7.7517    0.0000 C   0  0  0  0  0  0  0  0  0  0  0  0
    4.4625   -8.5666    0.0000 C   0  0  0  0  0  0  0  0  0  0  0  0
    8.0638   -7.3311    0.0000 N   0  0  0  0  0  0  0  0  0  0  0  0
    8.0638   -8.9872    0.0000 N   0  0  0  0  0  0  0  0  0  0  0  0
    5.1986   -6.5162    0.0000 C   0  0  0  0  0  0  0  0  0  0  0  0
    5.9083   -6.0956    0.0000 C   0  0  0  0  0  0  0  0  0  0  0  0
    4.4625   -6.0956    0.0000 C   0  0  0  0  0  0  0  0  0  0  0  0
    8.7735   -8.5666    0.0000 C   0  0  0  0  0  0  0  0  0  0  0  0
    5.1986   -4.8602    0.0000 C   0  0  0  0  0  0  0  0  0  0  0  0
   10.1930   -7.7517    0.0000 C   0  0  0  0  0  0  0  0  0  0  0  0
    4.4625   -5.2545    0.0000 C   0  0  0  0  0  0  0  0  0  0  0  0
    5.9083   -5.2545    0.0000 C   0  0  0  0  0  0  0  0  0  0  0  0
    8.0638   -6.5162    0.0000 C   0  0  0  0  0  0  0  0  0  0  0  0
    5.1986   -4.0453    0.0000 Cl  0  0  0  0  0  0  0  0  0  0  0  0
   10.9290   -7.3311    0.0000 Cl  0  0  0  0  0  0  0  0  0  0  0  0
    9.4833   -8.9872    0.0000 C   0  0  0  0  0  0  0  0  0  0  0  0
    8.7735   -7.7517    0.0000 C   0  0  0  0  0  0  0  0  0  0  0  0
   10.1930   -8.5666    0.0000 C   0  0  0  0  0  0  0  0  0  0  0  0
    9.4833   -7.3311    0.0000 C   0  0  0  0  0  0  0  0  0  0  0  0
    3.7790   -7.3311    0.0000 C   0  0  0  0  0  0  0  0  0  0  0  0
    3.7790   -8.9872    0.0000 C   0  0  0  0  0  0  0  0  0  0  0  0
    8.7735   -6.0956    0.0000 C   0  0  0  0  0  0  0  0  0  0  0  0
    7.3277   -6.0956    0.0000 C   0  0  0  0  0  0  0  0  0  0  0  0
    3.0430   -7.7517    0.0000 C   0  0  0  0  0  0  0  0  0  0  0  0
    3.0430   -8.5666    0.0000 C   0  0  0  0  0  0  0  0  0  0  0  0
    0.0000    0.0000    0.0000 H   0  0  0  0  0  0  0  0  0  0  0  0
    0.0000    0.0000    0.0000 H   0  0  0  0  0  0  0  0  0  0  0  0
    0.0000    0.0000    0.0000 H   0  0  0  0  0  0  0  0  0  0  0  0
    0.0000    0.0000    0.0000 H   0  0  0  0  0  0  0  0  0  0  0  0
    0.0000    0.0000    0.0000 H   0  0  0  0  0  0  0  0  0  0  0  0
    0.0000    0.0000    0.0000 H   0  0  0  0  0  0  0  0  0  0  0  0
    0.0000    0.0000    0.0000 H   0  0  0  0  0  0  0  0  0  0  0  0
    0.0000    0.0000    0.0000 H   0  0  0  0  0  0  0  0  0  0  0  0
    0.0000    0.0000    0.0000 H   0  0  0  0  0  0  0  0  0  0  0  0
    0.0000    0.0000    0.0000 H   0  0  0  0  0  0  0  0  0  0  0  0
    0.0000    0.0000    0.0000 H   0  0  0  0  0  0  0  0  0  0  0  0
    0.0000    0.0000    0.0000 H   0  0  0  0  0  0  0  0  0  0  0  0
    0.0000    0.0000    0.0000 H   0  0  0  0  0  0  0  0  0  0  0  0
    0.0000    0.0000    0.0000 H   0  0  0  0  0  0  0  0  0  0  0  0
    0.0000    0.0000    0.0000 H   0  0  0  0  0  0  0  0  0  0  0  0
    0.0000    0.0000    0.0000 H   0  0  0  0  0  0  0  0  0  0  0  0
    0.0000    0.0000    0.0000 H   0  0  0  0  0  0  0  0  0  0  0  0
    0.0000    0.0000    0.0000 H   0  0  0  0  0  0  0  0  0  0  0  0
    0.0000    0.0000    0.0000 H   0  0  0  0  0  0  0  0  0  0  0  0
    0.0000    0.0000    0.0000 H   0  0  0  0  0  0  0  0  0  0  0  0
    0.0000    0.0000    0.0000 H   0  0  0  0  0  0  0  0  0  0  0  0
    0.0000    0.0000    0.0000 H   0  0  0  0  0  0  0  0  0  0  0  0
  2  1  1  0
  3  1  1  0
  4  1  2  0
  9  2  1  0
 13  2  1  0
  5  3  2  0
  8  3  1  0
  7  4  1  0
 10  5  1  0
  7  6  1  0
 12  6  1  0
  8  6  2  0
 11  7  2  3
 28  9  2  0
 10  9  1  0
 29 10  2  0
 11 21  1  0
 16 12  1  0
 14 13  2  0
 15 13  1  0
 20 14  1  0
 19 15  2  0
 24 16  1  0
 25 16  2  0
 19 17  1  0
 22 17  1  0
 20 17  2  0
 27 18  2  0
 23 18  1  0
 26 18  1  0
 30 21  1  0
 31 21  1  0
 26 24  2  0
 27 25  1  0
 32 28  1  0
 33 29  1  0
 33 32  2  0
  4 34  1  0
  8 35  1  0
 12 36  1  0
 14 37  1  0
 15 38  1  0
 19 39  1  0
 20 40  1  0
 21 41  1  0
 24 42  1  0
 25 43  1  0
 26 44  1  0
 27 45  1  0
 28 46  1  0
 29 47  1  0
 30 48  1  0
 30 49  1  0
 30 50  1  0
 31 51  1  0
 31 52  1  0
 31 53  1  0
 32 54  1  0
 33 55  1  0
M  END
>  <ALOGPS_LOGP>  (1) 
7.39

>  <ALOGPS_LOGS>  (1) 
-5.50

>  <ALOGPS_SOLUBILITY>  (1) 
1.51e-03 g/l

>  <DATABASE_ID>  (1) 
DB00845

>  <DATABASE_NAME>  (1) 
drugbank

>  <DRUGBANK_ID>  (1) 
DB00845

>  <DRUG_GROUPS>  (1) 
approved; investigational

>  <EXACT_MASS>  (1) 
472.122152138

>  <FORMULA>  (1) 
C27H22Cl2N4

>  <GENERIC_NAME>  (1) 
Clofazimine

>  <INCHI_IDENTIFIER>  (1) 
InChI=1S/C27H22Cl2N4/c1-17(2)30-24-16-27-25(15-23(24)31-20-11-7-18(28)8-12-20)32-22-5-3-4-6-26(22)33(27)21-13-9-19(29)10-14-21/h3-17,31H,1-2H3

>  <INCHI_KEY>  (1) 
WDQPAMHFFCXSNU-UHFFFAOYSA-N

>  <INTERNATIONAL_BRANDS>  (1) 
Clofozine; Hansepran; Lamcoin; Lampren; LamprÃ¨ne; Lamprene

>  <JCHEM_ACCEPTOR_COUNT>  (1) 
4

>  <JCHEM_AVERAGE_POLARIZABILITY>  (1) 
51.51572644632594

>  <JCHEM_BIOAVAILABILITY>  (1) 
1

>  <JCHEM_DONOR_COUNT>  (1) 
1

>  <JCHEM_FORMAL_CHARGE>  (1) 
0

>  <JCHEM_GHOSE_FILTER>  (1) 
0

>  <JCHEM_IUPAC>  (1) 
N,5-bis(4-chlorophenyl)-3-[(propan-2-yl)imino]-3,5-dihydrophenazin-2-amine

>  <JCHEM_LOGP>  (1) 
7.304315287333333

>  <JCHEM_MDDR_LIKE_RULE>  (1) 
0

>  <JCHEM_NUMBER_OF_RINGS>  (1) 
5

>  <JCHEM_PHYSIOLOGICAL_CHARGE>  (1) 
1

>  <JCHEM_PKA_STRONGEST_ACIDIC>  (1) 
16.154113770729865

>  <JCHEM_PKA_STRONGEST_BASIC>  (1) 
9.288935498556162

>  <JCHEM_POLAR_SURFACE_AREA>  (1) 
39.99

>  <JCHEM_REFRACTIVITY>  (1) 
142.5521

>  <JCHEM_ROTATABLE_BOND_COUNT>  (1) 
4

>  <JCHEM_RULE_OF_FIVE>  (1) 
0

>  <JCHEM_TRADITIONAL_IUPAC>  (1) 
clofazimina

>  <JCHEM_VEBER_RULE>  (1) 
1

>  <MOLECULAR_WEIGHT>  (1) 
473.396

>  <SECONDARY_ACCESSION_NUMBERS>  (1) 
APRD00278

>  <SMILES>  (1) 
CC(C)N=C1C=C2N(C3=CC=C(Cl)C=C3)C3=C(C=CC=C3)N=C2C=C1NC1=CC=C(Cl)C=C1

>  <SYNONYMS>  (1) 
Clofazimin; Clofazimina; Clofazimine; Clofaziminum; Riminophenazine

$$$$
