655
     RDKit          2D

 42 45  0  0  1  0  0  0  0  0999 V2000
    7.5769    1.7954    0.0000 O   0  0  0  0  0  0  0  0  0  0  0  0
    2.0916   -1.7576    0.0000 O   0  0  0  0  0  0  0  0  0  0  0  0
    6.5402   -0.0648    0.0000 C   0  0  0  0  0  0  0  0  0  0  0  0
    6.5402    0.7600    0.0000 C   0  0  0  0  0  0  0  0  0  0  0  0
    5.8259   -0.4773    0.0000 C   0  0  0  0  0  0  0  0  0  0  0  0
    5.1114   -0.0648    0.0000 C   0  0  0  0  0  0  0  0  0  0  0  0
    5.8259    1.1726    0.0000 C   0  0  0  0  0  0  0  0  0  0  0  0
    7.3206   -0.3162    0.0000 C   0  0  0  0  0  0  0  0  0  0  0  0
    5.1114    0.7600    0.0000 C   0  0  0  0  0  0  0  0  0  0  0  0
    5.8392   -1.3363    0.0000 C   0  0  0  0  0  0  0  0  0  0  0  0
    7.3206    1.0114    0.0000 C   0  0  0  0  0  0  0  0  0  0  0  0
    7.8021    0.3477    0.0000 C   0  0  0  0  0  0  0  0  0  0  0  0
    6.5402    1.5851    0.0000 C   0  0  0  0  0  0  0  0  0  0  0  0
    4.3609   -0.4830    0.0000 C   0  0  0  0  0  0  0  0  0  0  0  0
    5.0982   -1.7716    0.0000 C   0  0  0  0  0  0  0  0  0  0  0  0
    4.3542   -1.3421    0.0000 C   0  0  0  0  0  0  0  0  0  0  0  0
    3.5964   -0.0176    0.0000 C   0  0  0  0  0  0  0  0  0  0  0  0
    3.5827   -1.7954    0.0000 C   0  0  0  0  0  0  0  0  0  0  0  0
    2.8143   -0.4532    0.0000 C   0  0  0  0  0  0  0  0  0  0  0  0
    2.8075   -1.3480    0.0000 C   0  0  0  0  0  0  0  0  0  0  0  0
    0.0000    0.0000    0.0000 H   0  0  0  0  0  0  0  0  0  0  0  0
    0.0000    0.0000    0.0000 H   0  0  0  0  0  0  0  0  0  0  0  0
    0.0000    0.0000    0.0000 H   0  0  0  0  0  0  0  0  0  0  0  0
    0.0000    0.0000    0.0000 H   0  0  0  0  0  0  0  0  0  0  0  0
    0.0000    0.0000    0.0000 H   0  0  0  0  0  0  0  0  0  0  0  0
    0.0000    0.0000    0.0000 H   0  0  0  0  0  0  0  0  0  0  0  0
    0.0000    0.0000    0.0000 H   0  0  0  0  0  0  0  0  0  0  0  0
    0.0000    0.0000    0.0000 H   0  0  0  0  0  0  0  0  0  0  0  0
    0.0000    0.0000    0.0000 H   0  0  0  0  0  0  0  0  0  0  0  0
    0.0000    0.0000    0.0000 H   0  0  0  0  0  0  0  0  0  0  0  0
    0.0000    0.0000    0.0000 H   0  0  0  0  0  0  0  0  0  0  0  0
    0.0000    0.0000    0.0000 H   0  0  0  0  0  0  0  0  0  0  0  0
    0.0000    0.0000    0.0000 H   0  0  0  0  0  0  0  0  0  0  0  0
    0.0000    0.0000    0.0000 H   0  0  0  0  0  0  0  0  0  0  0  0
    0.0000    0.0000    0.0000 H   0  0  0  0  0  0  0  0  0  0  0  0
    0.0000    0.0000    0.0000 H   0  0  0  0  0  0  0  0  0  0  0  0
    0.0000    0.0000    0.0000 H   0  0  0  0  0  0  0  0  0  0  0  0
    0.0000    0.0000    0.0000 H   0  0  0  0  0  0  0  0  0  0  0  0
    0.0000    0.0000    0.0000 H   0  0  0  0  0  0  0  0  0  0  0  0
    0.0000    0.0000    0.0000 H   0  0  0  0  0  0  0  0  0  0  0  0
    0.0000    0.0000    0.0000 H   0  0  0  0  0  0  0  0  0  0  0  0
    0.0000    0.0000    0.0000 H   0  0  0  0  0  0  0  0  0  0  0  0
  1 11  2  0
  2 20  1  0
  3  4  1  0
  3  5  1  0
  3  8  1  0
  4  7  1  0
  4 11  1  0
  4 13  1  1
  5  6  1  0
  5 10  1  0
  6  9  1  0
  6 14  1  0
  7  9  1  0
  8 12  1  0
 10 15  1  0
 11 12  1  0
 14 16  2  0
 14 17  1  0
 15 16  1  0
 16 18  1  0
 17 19  2  0
 18 20  2  0
 19 20  1  0
  2 21  1  0
  3 22  1  6
  5 23  1  1
  6 24  1  6
  7 25  1  0
  7 26  1  0
  8 27  1  0
  8 28  1  0
  9 29  1  0
  9 30  1  0
 10 31  1  0
 10 32  1  0
 12 33  1  0
 12 34  1  0
 13 35  1  0
 13 36  1  0
 13 37  1  0
 15 38  1  0
 15 39  1  0
 17 40  1  0
 18 41  1  0
 19 42  1  0
M  END
>  <ALOGPS_LOGP>  (1) 
4.03

>  <ALOGPS_LOGS>  (1) 
-4.84

>  <ALOGPS_SOLUBILITY>  (1) 
3.94e-03 g/l

>  <DATABASE_ID>  (1) 
DB00655

>  <DATABASE_NAME>  (1) 
drugbank

>  <DRUGBANK_ID>  (1) 
DB00655

>  <DRUG_GROUPS>  (1) 
approved

>  <EXACT_MASS>  (1) 
270.161979948

>  <FORMULA>  (1) 
C18H22O2

>  <GENERIC_NAME>  (1) 
Estrone

>  <INCHI_IDENTIFIER>  (1) 
InChI=1S/C18H22O2/c1-18-9-8-14-13-5-3-12(19)10-11(13)2-4-15(14)16(18)6-7-17(18)20/h3,5,10,14-16,19H,2,4,6-9H2,1H3/t14-,15-,16+,18+/m1/s1

>  <INCHI_KEY>  (1) 
DNXHEGUUPJUMQT-CBZIJGRNSA-N

>  <INTERNATIONAL_BRANDS>  (1) 
Estrone

>  <JCHEM_ACCEPTOR_COUNT>  (1) 
2

>  <JCHEM_AVERAGE_POLARIZABILITY>  (1) 
31.272372200210654

>  <JCHEM_BIOAVAILABILITY>  (1) 
1

>  <JCHEM_DONOR_COUNT>  (1) 
1

>  <JCHEM_FORMAL_CHARGE>  (1) 
0

>  <JCHEM_GHOSE_FILTER>  (1) 
1

>  <JCHEM_IUPAC>  (1) 
(1S,10R,11S,15S)-5-hydroxy-15-methyltetracyclo[8.7.0.0²,⁷.0¹¹,¹⁵]heptadeca-2(7),3,5-trien-14-one

>  <JCHEM_LOGP>  (1) 
4.309029034000001

>  <JCHEM_MDDR_LIKE_RULE>  (1) 
0

>  <JCHEM_NUMBER_OF_RINGS>  (1) 
4

>  <JCHEM_PHYSIOLOGICAL_CHARGE>  (1) 
0

>  <JCHEM_PKA>  (1) 
19.957534565528498

>  <JCHEM_PKA_STRONGEST_ACIDIC>  (1) 
10.32695754200012

>  <JCHEM_PKA_STRONGEST_BASIC>  (1) 
-5.448299376893847

>  <JCHEM_POLAR_SURFACE_AREA>  (1) 
37.3

>  <JCHEM_REFRACTIVITY>  (1) 
79.0824

>  <JCHEM_ROTATABLE_BOND_COUNT>  (1) 
0

>  <JCHEM_RULE_OF_FIVE>  (1) 
1

>  <JCHEM_TRADITIONAL_IUPAC>  (1) 
estrone

>  <JCHEM_VEBER_RULE>  (1) 
1

>  <MOLECULAR_WEIGHT>  (1) 
270.3661

>  <PRODUCTS>  (1) 
Estragyn Vaginal Cream; Oestrilin Cones Vaginaux; Oestrilin Creme Vaginale 1mg

>  <SALTS>  (1) 
Sodium Estrone Sulfate

>  <SECONDARY_ACCESSION_NUMBERS>  (1) 
APRD00588

>  <SMILES>  (1) 
[H][C@@]12CCC(=O)[C@@]1(C)CC[C@]1([H])C3=C(CC[C@@]21[H])C=C(O)C=C3

>  <SYNONYMS>  (1) 
3-Hydroxy-1,3,5(10)-estratrien-17-one; Estrona; Estrone; Estronum; follicular hormone; Oestrone

$$$$
