
     RDKit          2D

 58 61  0  0  1  0  0  0  0  0999 V2000
    9.2719  -13.6225    0.0000 C   0  0  0  0  0  0  0  0  0  0  0  0
    9.7621  -12.9484    0.0000 C   0  0  0  0  0  0  0  0  0  0  0  0
    9.2719  -12.3049    0.0000 C   0  0  0  0  0  0  0  0  0  0  0  0
    8.5059  -13.3774    0.0000 N   0  0  0  0  0  0  0  0  0  0  0  0
    8.5059  -12.5501    0.0000 C   0  0  0  0  0  0  0  0  0  0  0  0
    7.6479  -12.5501    0.0000 C   0  0  0  0  0  0  0  0  0  0  0  0
    7.6479  -13.3774    0.0000 C   0  0  0  0  0  0  0  0  0  0  0  0
    6.9432  -12.1517    0.0000 C   0  0  0  0  0  0  0  0  0  0  0  0
    6.9432  -11.3244    0.0000 O   0  0  0  0  0  0  0  0  0  0  0  0
    6.2385  -12.5501    0.0000 C   0  0  0  0  0  0  0  0  0  0  0  0
    7.0964  -13.9595    0.0000 O   0  0  0  0  0  0  0  0  0  0  0  0
    9.4557  -14.4191    0.0000 C   0  0  0  0  0  0  0  0  0  0  0  0
   10.2218  -14.6949    0.0000 O   0  0  0  0  0  0  0  0  0  0  0  0
    8.8429  -15.0013    0.0000 O   0  0  0  0  0  0  0  0  0  0  0  0
    9.5170  -11.5083    0.0000 C   0  0  0  0  0  0  0  0  0  0  0  0
   10.5894  -12.9484    0.0000 S   0  0  0  0  0  0  0  0  0  0  0  0
   10.9873  -13.6830    0.0000 C   0  0  0  0  0  0  0  0  0  0  0  0
   10.7277  -14.4661    0.0000 C   0  0  0  0  0  0  0  0  0  0  0  0
   11.4028  -14.9393    0.0000 N   0  0  0  0  0  0  0  0  0  0  0  0
   12.0437  -14.4456    0.0000 C   0  0  0  0  0  0  0  0  0  0  0  0
   11.8049  -13.6831    0.0000 C   0  0  0  0  0  0  0  0  0  0  0  0
   12.7466  -14.8770    0.0000 C   0  0  0  0  0  0  0  0  0  0  0  0
   12.7446  -15.6736    0.0000 O   0  0  0  0  0  0  0  0  0  0  0  0
   13.4830  -14.4499    0.0000 N   0  0  0  0  0  0  0  0  0  0  0  0
   13.4851  -13.6226    0.0000 C   0  0  0  0  0  0  0  0  0  0  0  0
   12.7507  -13.2224    0.0000 C   0  0  0  0  0  0  0  0  0  0  0  0
   12.7528  -12.3951    0.0000 C   0  0  0  0  0  0  0  0  0  0  0  0
   13.4893  -11.9680    0.0000 C   0  0  0  0  0  0  0  0  0  0  0  0
   14.1929  -12.3987    0.0000 C   0  0  0  0  0  0  0  0  0  0  0  0
   14.1908  -13.2260    0.0000 C   0  0  0  0  0  0  0  0  0  0  0  0
   14.8987  -11.9716    0.0000 C   0  0  0  0  0  0  0  0  0  0  0  0
   15.6330  -12.4024    0.0000 O   0  0  0  0  0  0  0  0  0  0  0  0
   14.9008  -11.1749    0.0000 O   0  0  0  0  0  0  0  0  0  0  0  0
    0.0000    0.0000    0.0000 H   0  0  0  0  0  0  0  0  0  0  0  0
    0.0000    0.0000    0.0000 H   0  0  0  0  0  0  0  0  0  0  0  0
    0.0000    0.0000    0.0000 H   0  0  0  0  0  0  0  0  0  0  0  0
    0.0000    0.0000    0.0000 H   0  0  0  0  0  0  0  0  0  0  0  0
    0.0000    0.0000    0.0000 H   0  0  0  0  0  0  0  0  0  0  0  0
    0.0000    0.0000    0.0000 H   0  0  0  0  0  0  0  0  0  0  0  0
    0.0000    0.0000    0.0000 H   0  0  0  0  0  0  0  0  0  0  0  0
    0.0000    0.0000    0.0000 H   0  0  0  0  0  0  0  0  0  0  0  0
    0.0000    0.0000    0.0000 H   0  0  0  0  0  0  0  0  0  0  0  0
    0.0000    0.0000    0.0000 H   0  0  0  0  0  0  0  0  0  0  0  0
    0.0000    0.0000    0.0000 H   0  0  0  0  0  0  0  0  0  0  0  0
    0.0000    0.0000    0.0000 H   0  0  0  0  0  0  0  0  0  0  0  0
    0.0000    0.0000    0.0000 H   0  0  0  0  0  0  0  0  0  0  0  0
    0.0000    0.0000    0.0000 H   0  0  0  0  0  0  0  0  0  0  0  0
    0.0000    0.0000    0.0000 H   0  0  0  0  0  0  0  0  0  0  0  0
    0.0000    0.0000    0.0000 H   0  0  0  0  0  0  0  0  0  0  0  0
    0.0000    0.0000    0.0000 H   0  0  0  0  0  0  0  0  0  0  0  0
    0.0000    0.0000    0.0000 H   0  0  0  0  0  0  0  0  0  0  0  0
    0.0000    0.0000    0.0000 H   0  0  0  0  0  0  0  0  0  0  0  0
    0.0000    0.0000    0.0000 H   0  0  0  0  0  0  0  0  0  0  0  0
    0.0000    0.0000    0.0000 H   0  0  0  0  0  0  0  0  0  0  0  0
    0.0000    0.0000    0.0000 H   0  0  0  0  0  0  0  0  0  0  0  0
    0.0000    0.0000    0.0000 H   0  0  0  0  0  0  0  0  0  0  0  0
    0.0000    0.0000    0.0000 H   0  0  0  0  0  0  0  0  0  0  0  0
    0.0000    0.0000    0.0000 H   0  0  0  0  0  0  0  0  0  0  0  0
  4  1  1  0
  2  1  2  0
 12  1  1  0
 16  2  1  0
  3  2  1  0
  5  3  1  0
  3 15  1  1
  5  4  1  0
  7  4  1  0
  6  5  1  0
  8  6  1  0
  7  6  1  0
 11  7  2  0
  8  9  1  1
 10  8  1  0
 13 12  2  0
 14 12  1  0
 17 16  1  1
 18 17  1  0
 21 17  1  0
 19 18  1  0
 20 19  1  0
 21 20  1  0
 20 22  1  6
 23 22  2  0
 24 22  1  0
 25 24  1  0
 26 25  2  0
 30 25  1  0
 27 26  1  0
 28 27  2  0
 29 28  1  0
 30 29  2  0
 31 29  1  0
 32 31  1  0
 33 31  2  0
  3 34  1  0
  5 35  1  6
  6 36  1  1
  8 37  1  0
  9 38  1  0
 10 39  1  0
 10 40  1  0
 10 41  1  0
 14 42  1  0
 15 43  1  0
 15 44  1  0
 15 45  1  0
 17 46  1  0
 18 47  1  0
 18 48  1  0
 19 49  1  0
 20 50  1  0
 21 51  1  0
 21 52  1  0
 24 53  1  0
 26 54  1  0
 27 55  1  0
 28 56  1  0
 30 57  1  0
 32 58  1  0
M  END
>  <ALOGPS_LOGP>  (1) 
-0.20

>  <ALOGPS_LOGS>  (1) 
-3.22

>  <ALOGPS_SOLUBILITY>  (1) 
2.86e-01 g/l

>  <DATABASE_ID>  (1) 
DB00303

>  <DATABASE_NAME>  (1) 
drugbank

>  <DRUGBANK_ID>  (1) 
DB00303

>  <DRUG_GROUPS>  (1) 
approved; investigational

>  <EXACT_MASS>  (1) 
475.141320859

>  <FORMULA>  (1) 
C22H25N3O7S

>  <GENERIC_NAME>  (1) 
Ertapenem

>  <INCHI_IDENTIFIER>  (1) 
InChI=1S/C22H25N3O7S/c1-9-16-15(10(2)26)20(28)25(16)17(22(31)32)18(9)33-13-7-14(23-8-13)19(27)24-12-5-3-4-11(6-12)21(29)30/h3-6,9-10,13-16,23,26H,7-8H2,1-2H3,(H,24,27)(H,29,30)(H,31,32)/t9-,10-,13+,14+,15-,16-/m1/s1

>  <INCHI_KEY>  (1) 
JUZNIMUFDBIJCM-ANEDZVCMSA-N

>  <JCHEM_ACCEPTOR_COUNT>  (1) 
8

>  <JCHEM_AVERAGE_POLARIZABILITY>  (1) 
48.7679762586463

>  <JCHEM_BIOAVAILABILITY>  (1) 
1

>  <JCHEM_DONOR_COUNT>  (1) 
5

>  <JCHEM_FORMAL_CHARGE>  (1) 
0

>  <JCHEM_GHOSE_FILTER>  (1) 
0

>  <JCHEM_IUPAC>  (1) 
(4R,5S,6S)-3-{[(3S,5S)-5-[(3-carboxyphenyl)carbamoyl]pyrrolidin-3-yl]sulfanyl}-6-[(1R)-1-hydroxyethyl]-4-methyl-7-oxo-1-azabicyclo[3.2.0]hept-2-ene-2-carboxylic acid

>  <JCHEM_LOGP>  (1) 
-3.2123687808983705

>  <JCHEM_MDDR_LIKE_RULE>  (1) 
1

>  <JCHEM_NUMBER_OF_RINGS>  (1) 
4

>  <JCHEM_PHYSIOLOGICAL_CHARGE>  (1) 
-1

>  <JCHEM_PKA>  (1) 
4.047751996014299

>  <JCHEM_PKA_STRONGEST_ACIDIC>  (1) 
3.3674526693797766

>  <JCHEM_PKA_STRONGEST_BASIC>  (1) 
9.02655426191301

>  <JCHEM_POLAR_SURFACE_AREA>  (1) 
156.26999999999998

>  <JCHEM_REFRACTIVITY>  (1) 
121.80409999999998

>  <JCHEM_ROTATABLE_BOND_COUNT>  (1) 
7

>  <JCHEM_RULE_OF_FIVE>  (1) 
1

>  <JCHEM_TRADITIONAL_IUPAC>  (1) 
ertapenem

>  <JCHEM_VEBER_RULE>  (1) 
0

>  <MOLECULAR_WEIGHT>  (1) 
475.515

>  <PRODUCTS>  (1) 
Invanz

>  <SALTS>  (1) 
Ertapenem sodium

>  <SECONDARY_ACCESSION_NUMBERS>  (1) 
APRD00952

>  <SMILES>  (1) 
[H][C@]12[C@@H](C)C(S[C@]3([H])CN[C@@]([H])(C3)C(=O)NC3=CC=CC(=C3)C(O)=O)=C(N1C(=O)[C@]2([H])[C@@H](C)O)C(O)=O

$$$$
