842
     RDKit          2D

 31 33  0  0  1  0  0  0  0  0999 V2000
    2.5467   -2.3783    0.0000 Cl  0  0  0  0  0  0  0  0  0  0  0  0
    3.8811    2.3401    0.0000 O   0  0  0  0  0  0  0  0  0  0  0  0
    2.3403    2.3401    0.0000 O   0  0  0  0  0  0  0  0  0  0  0  0
    2.1838    0.9518    0.0000 N   0  0  0  0  0  0  0  0  0  0  0  0
    4.0375    0.9518    0.0000 N   0  0  0  0  0  0  0  0  0  0  0  0
    3.1106   -0.2105    0.0000 C   0  0  0  0  0  0  0  0  0  0  0  0
    3.8540    0.1475    0.0000 C   0  0  0  0  0  0  0  0  0  0  0  0
    2.3674    0.1475    0.0000 C   0  0  0  0  0  0  0  0  0  0  0  0
    4.4989   -0.3669    0.0000 C   0  0  0  0  0  0  0  0  0  0  0  0
    3.5231    1.5968    0.0000 C   0  0  0  0  0  0  0  0  0  0  0  0
    3.1881   -1.0663    0.0000 C   0  0  0  0  0  0  0  0  0  0  0  0
    1.6500   -0.3256    0.0000 C   0  0  0  0  0  0  0  0  0  0  0  0
    2.6981    1.5968    0.0000 C   0  0  0  0  0  0  0  0  0  0  0  0
    2.4818   -1.5559    0.0000 C   0  0  0  0  0  0  0  0  0  0  0  0
    1.7076   -1.1830    0.0000 C   0  0  0  0  0  0  0  0  0  0  0  0
    5.2669   -0.0655    0.0000 C   0  0  0  0  0  0  0  0  0  0  0  0
    4.3760   -1.1827    0.0000 C   0  0  0  0  0  0  0  0  0  0  0  0
    5.9120   -0.5799    0.0000 C   0  0  0  0  0  0  0  0  0  0  0  0
    5.0210   -1.6971    0.0000 C   0  0  0  0  0  0  0  0  0  0  0  0
    5.7890   -1.3956    0.0000 C   0  0  0  0  0  0  0  0  0  0  0  0
    0.0000    0.0000    0.0000 H   0  0  0  0  0  0  0  0  0  0  0  0
    0.0000    0.0000    0.0000 H   0  0  0  0  0  0  0  0  0  0  0  0
    0.0000    0.0000    0.0000 H   0  0  0  0  0  0  0  0  0  0  0  0
    0.0000    0.0000    0.0000 H   0  0  0  0  0  0  0  0  0  0  0  0
    0.0000    0.0000    0.0000 H   0  0  0  0  0  0  0  0  0  0  0  0
    0.0000    0.0000    0.0000 H   0  0  0  0  0  0  0  0  0  0  0  0
    0.0000    0.0000    0.0000 H   0  0  0  0  0  0  0  0  0  0  0  0
    0.0000    0.0000    0.0000 H   0  0  0  0  0  0  0  0  0  0  0  0
    0.0000    0.0000    0.0000 H   0  0  0  0  0  0  0  0  0  0  0  0
    0.0000    0.0000    0.0000 H   0  0  0  0  0  0  0  0  0  0  0  0
    0.0000    0.0000    0.0000 H   0  0  0  0  0  0  0  0  0  0  0  0
  1 14  1  0
  2 10  1  0
  3 13  2  0
  4  8  1  0
  4 13  1  0
  5  7  2  0
  5 10  1  0
  6  7  1  0
  6  8  2  0
  6 11  1  0
  7  9  1  0
  8 12  1  0
  9 16  2  0
  9 17  1  0
 10 13  1  0
 11 14  2  0
 12 15  2  0
 14 15  1  0
 16 18  1  0
 17 19  2  0
 18 20  2  0
 19 20  1  0
  2 21  1  0
  4 22  1  0
 10 23  1  0
 11 24  1  0
 12 25  1  0
 15 26  1  0
 16 27  1  0
 17 28  1  0
 18 29  1  0
 19 30  1  0
 20 31  1  0
M  END
>  <ALOGPS_LOGP>  (1) 
2.01

>  <ALOGPS_LOGS>  (1) 
-3.51

>  <ALOGPS_SOLUBILITY>  (1) 
8.81e-02 g/l

>  <DATABASE_ID>  (1) 
DB00842

>  <DATABASE_NAME>  (1) 
drugbank

>  <DRUGBANK_ID>  (1) 
DB00842

>  <DRUG_GROUPS>  (1) 
approved

>  <EXACT_MASS>  (1) 
286.050905313

>  <FORMULA>  (1) 
C15H11ClN2O2

>  <GENERIC_NAME>  (1) 
Oxazepam

>  <INCHI_IDENTIFIER>  (1) 
InChI=1S/C15H11ClN2O2/c16-10-6-7-12-11(8-10)13(9-4-2-1-3-5-9)18-15(20)14(19)17-12/h1-8,15,20H,(H,17,19)

>  <INCHI_KEY>  (1) 
ADIMAYPTOBDMTL-UHFFFAOYSA-N

>  <INTERNATIONAL_BRANDS>  (1) 
Adumbran; Alepam; Alopam; Anxiolit; Durazepam; Limbial; Medopam; Murelax; Noripam; Opamox; Ox-Pam; Oxascand; Praxiten; Purata; Serax; Serenal; Serenid; Serepax; Seresta; Serpax; Sobril; Tazepam; Vaben; Zaxpam

>  <JCHEM_ACCEPTOR_COUNT>  (1) 
3

>  <JCHEM_AVERAGE_POLARIZABILITY>  (1) 
28.379214529255535

>  <JCHEM_BIOAVAILABILITY>  (1) 
1

>  <JCHEM_DONOR_COUNT>  (1) 
2

>  <JCHEM_FORMAL_CHARGE>  (1) 
0

>  <JCHEM_GHOSE_FILTER>  (1) 
1

>  <JCHEM_IUPAC>  (1) 
7-chloro-3-hydroxy-5-phenyl-2,3-dihydro-1H-1,4-benzodiazepin-2-one

>  <JCHEM_LOGP>  (1) 
2.9232808116666664

>  <JCHEM_MDDR_LIKE_RULE>  (1) 
0

>  <JCHEM_NUMBER_OF_RINGS>  (1) 
3

>  <JCHEM_PHYSIOLOGICAL_CHARGE>  (1) 
0

>  <JCHEM_PKA>  (1) 
12.46705502398967

>  <JCHEM_PKA_STRONGEST_ACIDIC>  (1) 
10.60720053307581

>  <JCHEM_PKA_STRONGEST_BASIC>  (1) 
-1.4704519526445035

>  <JCHEM_POLAR_SURFACE_AREA>  (1) 
61.69

>  <JCHEM_REFRACTIVITY>  (1) 
77.89440000000003

>  <JCHEM_ROTATABLE_BOND_COUNT>  (1) 
1

>  <JCHEM_RULE_OF_FIVE>  (1) 
1

>  <JCHEM_TRADITIONAL_IUPAC>  (1) 
oxazepam

>  <JCHEM_VEBER_RULE>  (1) 
0

>  <MOLECULAR_WEIGHT>  (1) 
286.713

>  <PRODUCTS>  (1) 
Apo Oxazepam Tab 10mg; Apo Oxazepam Tab 15mg; Apo Oxazepam Tab 30mg; Bio-oxazepam; Novoxapam Tab 10mg; Novoxapam Tab 15mg; Novoxapam Tab 30mg; Oxazepam; Oxazepam 10 Tab 10mg; Oxazepam 10mg Tablets; Oxazepam 15 Tab 15mg; Oxazepam 15mg Tablets; Oxazepam 30 Tab 30mg; Oxazepam 30mg Tablets; Oxazepam Tablets 15mg; Oxazepam Tablets 30mg; Oxpam; PMS-oxazepam Tab 10mg; PMS-oxazepam Tab 15mg; PMS-oxazepam Tab 30mg; Riva Oxazepam; Serax Tab 15mg; Serax Tab 30mg; Serax Tablets 10mg; Serax Tablets 15mg; Serax Tablets 30mg

>  <SALTS>  (1) 
Oxazepam acetate

>  <SECONDARY_ACCESSION_NUMBERS>  (1) 
APRD01152

>  <SMILES>  (1) 
OC1N=C(C2=CC=CC=C2)C2=C(NC1=O)C=CC(Cl)=C2

>  <SYNONYMS>  (1) 
(+-)-Oxazepam; (RS)-Oxazepam

$$$$
