587
     RDKit          2D

 57 59  0  0  0  0  0  0  0  0999 V2000
    6.4128    2.8065    0.0000 S   0  0  0  0  0  0  0  0  0  0  0  0
    2.1731   -4.6910    0.0000 O   0  0  0  0  0  0  0  0  0  0  0  0
    3.6020   -4.6910    0.0000 O   0  0  0  0  0  0  0  0  0  0  0  0
    4.3165   -2.6285    0.0000 O   0  0  0  0  0  0  0  0  0  0  0  0
    5.0780    2.8065    0.0000 N   0  0  0  0  0  0  0  0  0  0  0  0
    3.6020   -1.3910    0.0000 N   0  0  0  0  0  0  0  0  0  0  0  0
    4.8480    4.2586    0.0000 C   0  0  0  0  0  0  0  0  0  0  0  0
    4.9771    5.0734    0.0000 C   0  0  0  0  0  0  0  0  0  0  0  0
    4.0331    4.3876    0.0000 C   0  0  0  0  0  0  0  0  0  0  0  0
    4.1622    5.2025    0.0000 C   0  0  0  0  0  0  0  0  0  0  0  0
    5.3329    3.5912    0.0000 C   0  0  0  0  0  0  0  0  0  0  0  0
    2.8875   -3.4535    0.0000 C   0  0  0  0  0  0  0  0  0  0  0  0
    3.7125   -3.4535    0.0000 C   0  0  0  0  0  0  0  0  0  0  0  0
    2.0625   -3.4535    0.0000 C   0  0  0  0  0  0  0  0  0  0  0  0
    2.8875   -2.6285    0.0000 C   0  0  0  0  0  0  0  0  0  0  0  0
    6.1579    3.5912    0.0000 C   0  0  0  0  0  0  0  0  0  0  0  0
    2.8875   -4.2785    0.0000 C   0  0  0  0  0  0  0  0  0  0  0  0
    5.7454    2.3216    0.0000 C   0  0  0  0  0  0  0  0  0  0  0  0
    4.1250   -4.1679    0.0000 C   0  0  0  0  0  0  0  0  0  0  0  0
    1.6500   -2.7390    0.0000 C   0  0  0  0  0  0  0  0  0  0  0  0
    3.6020   -2.2160    0.0000 C   0  0  0  0  0  0  0  0  0  0  0  0
    5.7454    1.4966    0.0000 C   0  0  0  0  0  0  0  0  0  0  0  0
    4.3165   -0.9785    0.0000 C   0  0  0  0  0  0  0  0  0  0  0  0
    5.0310    1.0841    0.0000 C   0  0  0  0  0  0  0  0  0  0  0  0
    5.0310    0.2591    0.0000 C   0  0  0  0  0  0  0  0  0  0  0  0
    4.3165   -0.1535    0.0000 C   0  0  0  0  0  0  0  0  0  0  0  0
    5.0310   -1.3910    0.0000 C   0  0  0  0  0  0  0  0  0  0  0  0
    5.7454   -0.1535    0.0000 C   0  0  0  0  0  0  0  0  0  0  0  0
    5.7454   -0.9785    0.0000 C   0  0  0  0  0  0  0  0  0  0  0  0
    0.0000    0.0000    0.0000 H   0  0  0  0  0  0  0  0  0  0  0  0
    0.0000    0.0000    0.0000 H   0  0  0  0  0  0  0  0  0  0  0  0
    0.0000    0.0000    0.0000 H   0  0  0  0  0  0  0  0  0  0  0  0
    0.0000    0.0000    0.0000 H   0  0  0  0  0  0  0  0  0  0  0  0
    0.0000    0.0000    0.0000 H   0  0  0  0  0  0  0  0  0  0  0  0
    0.0000    0.0000    0.0000 H   0  0  0  0  0  0  0  0  0  0  0  0
    0.0000    0.0000    0.0000 H   0  0  0  0  0  0  0  0  0  0  0  0
    0.0000    0.0000    0.0000 H   0  0  0  0  0  0  0  0  0  0  0  0
    0.0000    0.0000    0.0000 H   0  0  0  0  0  0  0  0  0  0  0  0
    0.0000    0.0000    0.0000 H   0  0  0  0  0  0  0  0  0  0  0  0
    0.0000    0.0000    0.0000 H   0  0  0  0  0  0  0  0  0  0  0  0
    0.0000    0.0000    0.0000 H   0  0  0  0  0  0  0  0  0  0  0  0
    0.0000    0.0000    0.0000 H   0  0  0  0  0  0  0  0  0  0  0  0
    0.0000    0.0000    0.0000 H   0  0  0  0  0  0  0  0  0  0  0  0
    0.0000    0.0000    0.0000 H   0  0  0  0  0  0  0  0  0  0  0  0
    0.0000    0.0000    0.0000 H   0  0  0  0  0  0  0  0  0  0  0  0
    0.0000    0.0000    0.0000 H   0  0  0  0  0  0  0  0  0  0  0  0
    0.0000    0.0000    0.0000 H   0  0  0  0  0  0  0  0  0  0  0  0
    0.0000    0.0000    0.0000 H   0  0  0  0  0  0  0  0  0  0  0  0
    0.0000    0.0000    0.0000 H   0  0  0  0  0  0  0  0  0  0  0  0
    0.0000    0.0000    0.0000 H   0  0  0  0  0  0  0  0  0  0  0  0
    0.0000    0.0000    0.0000 H   0  0  0  0  0  0  0  0  0  0  0  0
    0.0000    0.0000    0.0000 H   0  0  0  0  0  0  0  0  0  0  0  0
    0.0000    0.0000    0.0000 H   0  0  0  0  0  0  0  0  0  0  0  0
    0.0000    0.0000    0.0000 H   0  0  0  0  0  0  0  0  0  0  0  0
    0.0000    0.0000    0.0000 H   0  0  0  0  0  0  0  0  0  0  0  0
    0.0000    0.0000    0.0000 H   0  0  0  0  0  0  0  0  0  0  0  0
    0.0000    0.0000    0.0000 H   0  0  0  0  0  0  0  0  0  0  0  0
  1 16  1  0
  1 18  1  0
  2 17  1  0
  3 17  2  0
  4 21  2  0
  5 11  1  0
  5 18  2  0
  6 21  1  0
  6 23  1  0
  7  8  1  0
  7  9  1  0
  7 11  1  0
  8 10  1  0
  9 10  1  0
 11 16  2  0
 12 13  1  0
 12 14  1  0
 12 15  1  0
 12 17  1  0
 13 19  1  0
 14 20  1  0
 15 21  1  0
 18 22  1  0
 22 24  2  0
 23 26  2  0
 23 27  1  0
 24 25  1  0
 25 26  1  0
 25 28  2  0
 27 29  2  0
 28 29  1  0
  2 30  1  0
  6 31  1  0
  7 32  1  0
  8 33  1  0
  8 34  1  0
  9 35  1  0
  9 36  1  0
 10 37  1  0
 10 38  1  0
 13 39  1  0
 13 40  1  0
 14 41  1  0
 14 42  1  0
 15 43  1  0
 15 44  1  0
 16 45  1  0
 19 46  1  0
 19 47  1  0
 19 48  1  0
 20 49  1  0
 20 50  1  0
 20 51  1  0
 22 52  1  0
 24 53  1  0
 26 54  1  0
 27 55  1  0
 28 56  1  0
 29 57  1  0
M  END
>  <ALOGPS_LOGP>  (1) 
4.98

>  <ALOGPS_LOGS>  (1) 
-5.68

>  <ALOGPS_SOLUBILITY>  (1) 
8.72e-04 g/l

>  <DATABASE_ID>  (1) 
DB00587

>  <DATABASE_NAME>  (1) 
drugbank

>  <DRUGBANK_ID>  (1) 
DB00587

>  <DRUG_GROUPS>  (1) 
approved

>  <EXACT_MASS>  (1) 
412.182063462

>  <FORMULA>  (1) 
C23H28N2O3S

>  <GENERIC_NAME>  (1) 
Cinalukast

>  <INCHI_IDENTIFIER>  (1) 
InChI=1S/C23H28N2O3S/c1-3-23(4-2,22(27)28)14-20(26)24-18-10-5-7-16(13-18)11-12-21-25-19(15-29-21)17-8-6-9-17/h5,7,10-13,15,17H,3-4,6,8-9,14H2,1-2H3,(H,24,26)(H,27,28)/b12-11+

>  <INCHI_KEY>  (1) 
BZMKNPGKXJAIDV-VAWYXSNFSA-N

>  <JCHEM_ACCEPTOR_COUNT>  (1) 
4

>  <JCHEM_AVERAGE_POLARIZABILITY>  (1) 
45.796107811305376

>  <JCHEM_BIOAVAILABILITY>  (1) 
1

>  <JCHEM_DONOR_COUNT>  (1) 
2

>  <JCHEM_FORMAL_CHARGE>  (1) 
0

>  <JCHEM_GHOSE_FILTER>  (1) 
1

>  <JCHEM_IUPAC>  (1) 
3-({3-[(E)-2-(4-cyclobutyl-1,3-thiazol-2-yl)ethenyl]phenyl}carbamoyl)-2,2-diethylpropanoic acid

>  <JCHEM_LOGP>  (1) 
5.482244516177262

>  <JCHEM_MDDR_LIKE_RULE>  (1) 
1

>  <JCHEM_NUMBER_OF_RINGS>  (1) 
3

>  <JCHEM_PHYSIOLOGICAL_CHARGE>  (1) 
-1

>  <JCHEM_PKA>  (1) 
14.07248771610698

>  <JCHEM_PKA_STRONGEST_ACIDIC>  (1) 
4.363397646526306

>  <JCHEM_PKA_STRONGEST_BASIC>  (1) 
2.4377288767688112

>  <JCHEM_POLAR_SURFACE_AREA>  (1) 
79.28999999999999

>  <JCHEM_REFRACTIVITY>  (1) 
116.74879999999999

>  <JCHEM_ROTATABLE_BOND_COUNT>  (1) 
9

>  <JCHEM_RULE_OF_FIVE>  (1) 
0

>  <JCHEM_TRADITIONAL_IUPAC>  (1) 
cinalukast

>  <JCHEM_VEBER_RULE>  (1) 
0

>  <MOLECULAR_WEIGHT>  (1) 
412.545

>  <SECONDARY_ACCESSION_NUMBERS>  (1) 
APRD00637

>  <SMILES>  (1) 
CCC(CC)(CC(=O)NC1=CC=CC(\C=C\C2=NC(=CS2)C2CCC2)=C1)C(O)=O

>  <SYNONYMS>  (1) 
Cinalukast

$$$$
