480
     RDKit          2D

 32 34  0  0  1  0  0  0  0  0999 V2000
    4.1159   -1.6769    0.0000 O   0  0  0  0  0  0  0  0  0  0  0  0
    5.1662    1.2002    0.0000 O   0  0  0  0  0  0  0  0  0  0  0  0
    7.6412   -0.2289    0.0000 O   0  0  0  0  0  0  0  0  0  0  0  0
    4.3412   -0.2289    0.0000 N   0  0  0  0  0  0  0  0  0  0  0  0
    6.4037    0.4857    0.0000 N   0  0  0  0  0  0  0  0  0  0  0  0
    2.3645    1.4212    0.0000 N   0  0  0  0  0  0  0  0  0  0  0  0
    5.1662   -0.2289    0.0000 C   0  0  0  0  0  0  0  0  0  0  0  0
    5.5787   -0.9433    0.0000 C   0  0  0  0  0  0  0  0  0  0  0  0
    3.8597    0.4351    0.0000 C   0  0  0  0  0  0  0  0  0  0  0  0
    3.0791    0.1836    0.0000 C   0  0  0  0  0  0  0  0  0  0  0  0
    3.8597   -0.8928    0.0000 C   0  0  0  0  0  0  0  0  0  0  0  0
    6.4037   -0.9433    0.0000 C   0  0  0  0  0  0  0  0  0  0  0  0
    3.0791   -0.6414    0.0000 C   0  0  0  0  0  0  0  0  0  0  0  0
    5.5787    0.4857    0.0000 C   0  0  0  0  0  0  0  0  0  0  0  0
    6.8162   -0.2289    0.0000 C   0  0  0  0  0  0  0  0  0  0  0  0
    2.3645    0.5962    0.0000 C   0  0  0  0  0  0  0  0  0  0  0  0
    2.3645   -1.0539    0.0000 C   0  0  0  0  0  0  0  0  0  0  0  0
    1.6500    0.1836    0.0000 C   0  0  0  0  0  0  0  0  0  0  0  0
    1.6500   -0.6414    0.0000 C   0  0  0  0  0  0  0  0  0  0  0  0
    0.0000    0.0000    0.0000 H   0  0  0  0  0  0  0  0  0  0  0  0
    0.0000    0.0000    0.0000 H   0  0  0  0  0  0  0  0  0  0  0  0
    0.0000    0.0000    0.0000 H   0  0  0  0  0  0  0  0  0  0  0  0
    0.0000    0.0000    0.0000 H   0  0  0  0  0  0  0  0  0  0  0  0
    0.0000    0.0000    0.0000 H   0  0  0  0  0  0  0  0  0  0  0  0
    0.0000    0.0000    0.0000 H   0  0  0  0  0  0  0  0  0  0  0  0
    0.0000    0.0000    0.0000 H   0  0  0  0  0  0  0  0  0  0  0  0
    0.0000    0.0000    0.0000 H   0  0  0  0  0  0  0  0  0  0  0  0
    0.0000    0.0000    0.0000 H   0  0  0  0  0  0  0  0  0  0  0  0
    0.0000    0.0000    0.0000 H   0  0  0  0  0  0  0  0  0  0  0  0
    0.0000    0.0000    0.0000 H   0  0  0  0  0  0  0  0  0  0  0  0
    0.0000    0.0000    0.0000 H   0  0  0  0  0  0  0  0  0  0  0  0
    0.0000    0.0000    0.0000 H   0  0  0  0  0  0  0  0  0  0  0  0
  1 11  2  0
  2 14  2  0
  3 15  2  0
  4  7  1  0
  4  9  1  0
  4 11  1  0
  5 14  1  0
  5 15  1  0
  6 16  1  0
  7  8  1  0
  7 14  1  0
  8 12  1  0
  9 10  1  0
 10 13  2  0
 10 16  1  0
 11 13  1  0
 12 15  1  0
 13 17  1  0
 16 18  2  0
 17 19  2  0
 18 19  1  0
  5 20  1  0
  6 21  1  0
  6 22  1  0
  7 23  1  0
  8 24  1  0
  8 25  1  0
  9 26  1  0
  9 27  1  0
 12 28  1  0
 12 29  1  0
 17 30  1  0
 18 31  1  0
 19 32  1  0
M  END
>  <ALOGPS_LOGP>  (1) 
-0.43

>  <ALOGPS_LOGS>  (1) 
-2.05

>  <ALOGPS_SOLUBILITY>  (1) 
2.33e+00 g/l

>  <DATABASE_ID>  (1) 
DB00480

>  <DATABASE_NAME>  (1) 
drugbank

>  <DRUGBANK_ID>  (1) 
DB00480

>  <DRUG_GROUPS>  (1) 
approved

>  <EXACT_MASS>  (1) 
259.095691297

>  <FORMULA>  (1) 
C13H13N3O3

>  <GENERIC_NAME>  (1) 
Lenalidomide

>  <INCHI_IDENTIFIER>  (1) 
InChI=1S/C13H13N3O3/c14-9-3-1-2-7-8(9)6-16(13(7)19)10-4-5-11(17)15-12(10)18/h1-3,10H,4-6,14H2,(H,15,17,18)

>  <INCHI_KEY>  (1) 
GOTYRUGSSMKFNF-UHFFFAOYSA-N

>  <INTERNATIONAL_BRANDS>  (1) 
Ladevina; Lenangio 

>  <JCHEM_ACCEPTOR_COUNT>  (1) 
4

>  <JCHEM_AVERAGE_POLARIZABILITY>  (1) 
25.54588111496085

>  <JCHEM_BIOAVAILABILITY>  (1) 
1

>  <JCHEM_DONOR_COUNT>  (1) 
2

>  <JCHEM_FORMAL_CHARGE>  (1) 
0

>  <JCHEM_GHOSE_FILTER>  (1) 
0

>  <JCHEM_IUPAC>  (1) 
3-(4-amino-1-oxo-2,3-dihydro-1H-isoindol-2-yl)piperidine-2,6-dione

>  <JCHEM_LOGP>  (1) 
-0.707852159

>  <JCHEM_MDDR_LIKE_RULE>  (1) 
0

>  <JCHEM_NUMBER_OF_RINGS>  (1) 
3

>  <JCHEM_PHYSIOLOGICAL_CHARGE>  (1) 
0

>  <JCHEM_PKA>  (1) 
15.21184443222047

>  <JCHEM_PKA_STRONGEST_ACIDIC>  (1) 
11.613173643508485

>  <JCHEM_PKA_STRONGEST_BASIC>  (1) 
2.3135467380676977

>  <JCHEM_POLAR_SURFACE_AREA>  (1) 
92.5

>  <JCHEM_REFRACTIVITY>  (1) 
68.29810000000002

>  <JCHEM_ROTATABLE_BOND_COUNT>  (1) 
1

>  <JCHEM_RULE_OF_FIVE>  (1) 
1

>  <JCHEM_TRADITIONAL_IUPAC>  (1) 
lenalidomide

>  <JCHEM_VEBER_RULE>  (1) 
0

>  <MOLECULAR_WEIGHT>  (1) 
259.2606

>  <PRODUCTS>  (1) 
Revlimid

>  <SECONDARY_ACCESSION_NUMBERS>  (1) 
APRD01303

>  <SMILES>  (1) 
NC1=CC=CC2=C1CN(C1CCC(=O)NC1=O)C2=O

>  <SYNONYMS>  (1) 
CC-5013; IMid-1

$$$$
