6323481
     RDKit          2D

 49 48  0  0  1  0  0  0  0  0999 V2000
    7.3659    1.1096    0.0000 P   0  0  0  0  0  0  0  0  0  0  0  0
    4.5080    1.1096    0.0000 O   0  0  0  0  0  0  0  0  0  0  0  0
    6.6515    0.6971    0.0000 O   0  0  0  0  0  0  0  0  0  0  0  0
    4.5080   -0.5404    0.0000 O   0  0  0  0  0  0  0  0  0  0  0  0
    8.0804    1.5222    0.0000 O   0  0  0  0  0  0  0  0  0  0  0  0
    6.9534    1.8241    0.0000 O   0  0  0  0  0  0  0  0  0  0  0  0
    7.7784    0.3952    0.0000 O   0  0  0  0  0  0  0  0  0  0  0  0
    3.7935   -0.1279    0.0000 O   0  0  0  0  0  0  0  0  0  0  0  0
    5.2224   -1.7779    0.0000 O   0  0  0  0  0  0  0  0  0  0  0  0
   10.9383    1.5222    0.0000 O   0  0  0  0  0  0  0  0  0  0  0  0
   10.2239    0.2846    0.0000 O   0  0  0  0  0  0  0  0  0  0  0  0
    9.5094    2.3472    0.0000 N   0  0  0  0  0  0  0  0  0  0  0  0
    5.2224    0.6971    0.0000 C   0  0  0  0  0  0  0  0  0  0  0  0
    5.9370    1.1096    0.0000 C   0  0  0  0  0  0  0  0  0  0  0  0
    5.2224   -0.1279    0.0000 C   0  0  0  0  0  0  0  0  0  0  0  0
    3.0790    1.1096    0.0000 C   0  0  0  0  0  0  0  0  0  0  0  0
    3.7935    0.6971    0.0000 C   0  0  0  0  0  0  0  0  0  0  0  0
    2.3645    0.6971    0.0000 C   0  0  0  0  0  0  0  0  0  0  0  0
    8.7949    1.1096    0.0000 C   0  0  0  0  0  0  0  0  0  0  0  0
    9.5094    1.5222    0.0000 C   0  0  0  0  0  0  0  0  0  0  0  0
    1.6500    1.1096    0.0000 C   0  0  0  0  0  0  0  0  0  0  0  0
    4.5080   -1.3654    0.0000 C   0  0  0  0  0  0  0  0  0  0  0  0
    3.7935   -1.7779    0.0000 C   0  0  0  0  0  0  0  0  0  0  0  0
   10.2239    1.1096    0.0000 C   0  0  0  0  0  0  0  0  0  0  0  0
    3.7935   -2.6029    0.0000 C   0  0  0  0  0  0  0  0  0  0  0  0
    0.0000    0.0000    0.0000 H   0  0  0  0  0  0  0  0  0  0  0  0
    0.0000    0.0000    0.0000 H   0  0  0  0  0  0  0  0  0  0  0  0
    0.0000    0.0000    0.0000 H   0  0  0  0  0  0  0  0  0  0  0  0
    0.0000    0.0000    0.0000 H   0  0  0  0  0  0  0  0  0  0  0  0
    0.0000    0.0000    0.0000 H   0  0  0  0  0  0  0  0  0  0  0  0
    0.0000    0.0000    0.0000 H   0  0  0  0  0  0  0  0  0  0  0  0
    0.0000    0.0000    0.0000 H   0  0  0  0  0  0  0  0  0  0  0  0
    0.0000    0.0000    0.0000 H   0  0  0  0  0  0  0  0  0  0  0  0
    0.0000    0.0000    0.0000 H   0  0  0  0  0  0  0  0  0  0  0  0
    0.0000    0.0000    0.0000 H   0  0  0  0  0  0  0  0  0  0  0  0
    0.0000    0.0000    0.0000 H   0  0  0  0  0  0  0  0  0  0  0  0
    0.0000    0.0000    0.0000 H   0  0  0  0  0  0  0  0  0  0  0  0
    0.0000    0.0000    0.0000 H   0  0  0  0  0  0  0  0  0  0  0  0
    0.0000    0.0000    0.0000 H   0  0  0  0  0  0  0  0  0  0  0  0
    0.0000    0.0000    0.0000 H   0  0  0  0  0  0  0  0  0  0  0  0
    0.0000    0.0000    0.0000 H   0  0  0  0  0  0  0  0  0  0  0  0
    0.0000    0.0000    0.0000 H   0  0  0  0  0  0  0  0  0  0  0  0
    0.0000    0.0000    0.0000 H   0  0  0  0  0  0  0  0  0  0  0  0
    0.0000    0.0000    0.0000 H   0  0  0  0  0  0  0  0  0  0  0  0
    0.0000    0.0000    0.0000 H   0  0  0  0  0  0  0  0  0  0  0  0
    0.0000    0.0000    0.0000 H   0  0  0  0  0  0  0  0  0  0  0  0
    0.0000    0.0000    0.0000 H   0  0  0  0  0  0  0  0  0  0  0  0
    0.0000    0.0000    0.0000 H   0  0  0  0  0  0  0  0  0  0  0  0
    0.0000    0.0000    0.0000 H   0  0  0  0  0  0  0  0  0  0  0  0
  1  3  1  0
  1  5  1  0
  1  6  1  0
  1  7  2  0
 13  2  1  1
  2 17  1  0
  3 14  1  0
  4 15  1  0
  4 22  1  0
  5 19  1  0
  8 17  2  0
  9 22  2  0
 10 24  1  0
 11 24  2  0
 20 12  1  6
 13 14  1  0
 13 15  1  0
 16 17  1  0
 16 18  1  0
 18 21  1  0
 19 20  1  0
 20 24  1  0
 22 23  1  0
 23 25  1  0
  6 26  1  0
 10 27  1  0
 12 28  1  0
 12 29  1  0
 13 30  1  0
 14 31  1  0
 14 32  1  0
 15 33  1  0
 15 34  1  0
 16 35  1  0
 16 36  1  0
 18 37  1  0
 18 38  1  0
 19 39  1  0
 19 40  1  0
 20 41  1  0
 21 42  1  0
 21 43  1  0
 21 44  1  0
 23 45  1  0
 23 46  1  0
 25 47  1  0
 25 48  1  0
 25 49  1  0
M  END
>  <ALOGPS_LOGP>  (1) 
-1.02

>  <ALOGPS_LOGS>  (1) 
-2.02

>  <ALOGPS_SOLUBILITY>  (1) 
3.70e+00 g/l

>  <DATABASE_ID>  (1) 
DB00144

>  <DATABASE_NAME>  (1) 
drugbank

>  <DRUGBANK_ID>  (1) 
DB00144

>  <DRUG_GROUPS>  (1) 
approved; nutraceutical

>  <EXACT_MASS>  (1) 
385.113782505

>  <FORMULA>  (1) 
C13H24NO10P

>  <GENERIC_NAME>  (1) 
Phosphatidyl serine

>  <INCHI_IDENTIFIER>  (1) 
InChI=1S/C13H24NO10P/c1-3-5-12(16)24-9(6-21-11(15)4-2)7-22-25(19,20)23-8-10(14)13(17)18/h9-10H,3-8,14H2,1-2H3,(H,17,18)(H,19,20)/t9-,10+/m1/s1

>  <INCHI_KEY>  (1) 
UNJJBGNPUUVVFQ-ZJUUUORDSA-N

>  <INTERNATIONAL_BRANDS>  (1) 
LifeExtension PS Caps

>  <JCHEM_ACCEPTOR_COUNT>  (1) 
7

>  <JCHEM_AVERAGE_POLARIZABILITY>  (1) 
35.58252897815828

>  <JCHEM_BIOAVAILABILITY>  (1) 
1

>  <JCHEM_DONOR_COUNT>  (1) 
3

>  <JCHEM_FORMAL_CHARGE>  (1) 
0

>  <JCHEM_GHOSE_FILTER>  (1) 
0

>  <JCHEM_IUPAC>  (1) 
(2S)-2-amino-3-({[(2R)-2-(butanoyloxy)-3-(propanoyloxy)propoxy](hydroxy)phosphoryl}oxy)propanoic acid

>  <JCHEM_LOGP>  (1) 
-1.6207098594369584

>  <JCHEM_MDDR_LIKE_RULE>  (1) 
0

>  <JCHEM_NUMBER_OF_RINGS>  (1) 
0

>  <JCHEM_PHYSIOLOGICAL_CHARGE>  (1) 
-1

>  <JCHEM_PKA>  (1) 
2.17839601565745

>  <JCHEM_PKA_STRONGEST_ACIDIC>  (1) 
1.4680339991867495

>  <JCHEM_PKA_STRONGEST_BASIC>  (1) 
9.376604467850063

>  <JCHEM_POLAR_SURFACE_AREA>  (1) 
171.67999999999998

>  <JCHEM_REFRACTIVITY>  (1) 
81.8088

>  <JCHEM_ROTATABLE_BOND_COUNT>  (1) 
15

>  <JCHEM_RULE_OF_FIVE>  (1) 
1

>  <JCHEM_TRADITIONAL_IUPAC>  (1) 
phosphatidylserine

>  <JCHEM_VEBER_RULE>  (1) 
0

>  <MOLECULAR_WEIGHT>  (1) 
385.3041

>  <PRODUCTS>  (1) 
EnBrace HR; EnLyte

>  <SECONDARY_ACCESSION_NUMBERS>  (1) 
NUTR00048

>  <SMILES>  (1) 
CCCC(=O)O[C@H](COC(=O)CC)COP(O)(=O)OC[C@H](N)C(O)=O

>  <SYNONYMS>  (1) 
Phosphatidyl-L-serine; Phosphatidylserine; PS; Ptd-L-Ser

$$$$
