550
     RDKit          2D

 21 21  0  0  0  0  0  0  0  0999 V2000
    5.9370   -0.9818    0.0000 S   0  0  0  0  0  0  0  0  0  0  0  0
    4.5080    1.4933    0.0000 O   0  0  0  0  0  0  0  0  0  0  0  0
    4.5080   -0.9818    0.0000 N   0  0  0  0  0  0  0  0  0  0  0  0
    5.2224    0.2558    0.0000 N   0  0  0  0  0  0  0  0  0  0  0  0
    3.0791   -0.9818    0.0000 C   0  0  0  0  0  0  0  0  0  0  0  0
    3.7935   -0.5693    0.0000 C   0  0  0  0  0  0  0  0  0  0  0  0
    2.3645   -0.5693    0.0000 C   0  0  0  0  0  0  0  0  0  0  0  0
    3.7935    0.2558    0.0000 C   0  0  0  0  0  0  0  0  0  0  0  0
    1.6500   -0.9818    0.0000 C   0  0  0  0  0  0  0  0  0  0  0  0
    5.2224   -0.5693    0.0000 C   0  0  0  0  0  0  0  0  0  0  0  0
    4.5080    0.6683    0.0000 C   0  0  0  0  0  0  0  0  0  0  0  0
    0.0000    0.0000    0.0000 H   0  0  0  0  0  0  0  0  0  0  0  0
    0.0000    0.0000    0.0000 H   0  0  0  0  0  0  0  0  0  0  0  0
    0.0000    0.0000    0.0000 H   0  0  0  0  0  0  0  0  0  0  0  0
    0.0000    0.0000    0.0000 H   0  0  0  0  0  0  0  0  0  0  0  0
    0.0000    0.0000    0.0000 H   0  0  0  0  0  0  0  0  0  0  0  0
    0.0000    0.0000    0.0000 H   0  0  0  0  0  0  0  0  0  0  0  0
    0.0000    0.0000    0.0000 H   0  0  0  0  0  0  0  0  0  0  0  0
    0.0000    0.0000    0.0000 H   0  0  0  0  0  0  0  0  0  0  0  0
    0.0000    0.0000    0.0000 H   0  0  0  0  0  0  0  0  0  0  0  0
    0.0000    0.0000    0.0000 H   0  0  0  0  0  0  0  0  0  0  0  0
  1 10  2  0
  2 11  2  0
  3  6  1  0
  3 10  1  0
  4 10  1  0
  4 11  1  0
  5  6  1  0
  5  7  1  0
  6  8  2  0
  7  9  1  0
  8 11  1  0
  3 12  1  0
  4 13  1  0
  5 14  1  0
  5 15  1  0
  7 16  1  0
  7 17  1  0
  8 18  1  0
  9 19  1  0
  9 20  1  0
  9 21  1  0
M  END
>  <ALOGPS_LOGP>  (1) 
1.53

>  <ALOGPS_LOGS>  (1) 
-2.56

>  <ALOGPS_SOLUBILITY>  (1) 
4.66e-01 g/l

>  <DATABASE_ID>  (1) 
DB00550

>  <DATABASE_NAME>  (1) 
drugbank

>  <DRUGBANK_ID>  (1) 
DB00550

>  <DRUG_GROUPS>  (1) 
approved

>  <EXACT_MASS>  (1) 
170.051383642

>  <FORMULA>  (1) 
C7H10N2OS

>  <GENERIC_NAME>  (1) 
Propylthiouracil

>  <INCHI_IDENTIFIER>  (1) 
InChI=1S/C7H10N2OS/c1-2-3-5-4-6(10)9-7(11)8-5/h4H,2-3H2,1H3,(H2,8,9,10,11)

>  <INCHI_KEY>  (1) 
KNAHARQHSZJURB-UHFFFAOYSA-N

>  <INTERNATIONAL_BRANDS>  (1) 
Antiroid; Propil; Propilracil; Propycil; Proracyl; Prothiucil; Prothuril; PTU; Thiuragyl; Thyrosan; Tiotil; Tirostat; Uracil

>  <JCHEM_ACCEPTOR_COUNT>  (1) 
1

>  <JCHEM_AVERAGE_POLARIZABILITY>  (1) 
17.793220385184945

>  <JCHEM_BIOAVAILABILITY>  (1) 
1

>  <JCHEM_DONOR_COUNT>  (1) 
2

>  <JCHEM_FORMAL_CHARGE>  (1) 
0

>  <JCHEM_GHOSE_FILTER>  (1) 
1

>  <JCHEM_IUPAC>  (1) 
6-propyl-2-sulfanylidene-1,2,3,4-tetrahydropyrimidin-4-one

>  <JCHEM_LOGP>  (1) 
1.203742354333333

>  <JCHEM_MDDR_LIKE_RULE>  (1) 
0

>  <JCHEM_NUMBER_OF_RINGS>  (1) 
1

>  <JCHEM_PHYSIOLOGICAL_CHARGE>  (1) 
0

>  <JCHEM_PKA>  (1) 
12.893749311332634

>  <JCHEM_PKA_STRONGEST_ACIDIC>  (1) 
8.08944250085549

>  <JCHEM_PKA_STRONGEST_BASIC>  (1) 
-2.655291893290601

>  <JCHEM_POLAR_SURFACE_AREA>  (1) 
41.13

>  <JCHEM_REFRACTIVITY>  (1) 
48.90429999999999

>  <JCHEM_ROTATABLE_BOND_COUNT>  (1) 
2

>  <JCHEM_RULE_OF_FIVE>  (1) 
1

>  <JCHEM_TRADITIONAL_IUPAC>  (1) 
propylthiouracil

>  <JCHEM_VEBER_RULE>  (1) 
0

>  <MOLECULAR_WEIGHT>  (1) 
170.232

>  <PRODUCTS>  (1) 
Apo-propylthiouracil; PMS-propylthiouracil; Propyl-thyracil; Propylthiouracil

>  <SECONDARY_ACCESSION_NUMBERS>  (1) 
APRD00297

>  <SMILES>  (1) 
CCCC1=CC(=O)NC(=S)N1

>  <SYNONYMS>  (1) 
Propiltiouracilo; Propylthiouracil; Propylthiouracile; Propylthiouracilum

$$$$
