
     RDKit          2D

 54 56  0  0  0  0  0  0  0  0999 V2000
   -0.7145   -0.4125    0.0000 N   0  0  0  0  0  0  0  0  0  0  0  0
    0.0000   -0.8250    0.0000 C   0  0  0  0  0  0  0  0  0  0  0  0
    0.7145   -0.4125    0.0000 C   0  0  0  0  0  0  0  0  0  0  0  0
    0.7145    0.4125    0.0000 C   0  0  0  0  0  0  0  0  0  0  0  0
    0.0000    0.8250    0.0000 C   0  0  0  0  0  0  0  0  0  0  0  0
   -0.7145    0.4125    0.0000 C   0  0  0  0  0  0  0  0  0  0  0  0
    1.4289   -0.8251    0.0000 C   0  0  0  0  0  0  0  0  0  0  0  0
    2.1433   -0.4128    0.0000 C   0  0  0  0  0  0  0  0  0  0  0  0
    2.1434    0.4123    0.0000 C   0  0  0  0  0  0  0  0  0  0  0  0
    1.4290    0.8248    0.0000 C   0  0  0  0  0  0  0  0  0  0  0  0
    0.0001    1.6499    0.0000 C   0  0  0  0  0  0  0  0  0  0  0  0
    0.7146    2.0624    0.0000 C   0  0  0  0  0  0  0  0  0  0  0  0
    0.7146    2.8874    0.0000 O   0  0  0  0  0  0  0  0  0  0  0  0
    1.4290    1.6498    0.0000 O   0  0  0  0  0  0  0  0  0  0  0  0
    2.8578    0.8248    0.0000 C   0  0  0  0  0  0  0  0  0  0  0  0
    2.8580    1.6498    0.0000 O   0  0  0  0  0  0  0  0  0  0  0  0
    3.5723    0.4122    0.0000 O   0  0  0  0  0  0  0  0  0  0  0  0
   -1.4989    0.6674    0.0000 C   0  0  0  0  0  0  0  0  0  0  0  0
   -1.9839    0.0001    0.0000 N   0  0  0  0  0  0  0  0  0  0  0  0
   -1.4991   -0.6674    0.0000 C   0  0  0  0  0  0  0  0  0  0  0  0
   -1.7541   -1.4520    0.0000 C   0  0  0  0  0  0  0  0  0  0  0  0
   -2.5610   -1.6235    0.0000 C   0  0  0  0  0  0  0  0  0  0  0  0
   -2.8159   -2.4082    0.0000 C   0  0  0  0  0  0  0  0  0  0  0  0
   -3.6228   -2.5797    0.0000 C   0  0  0  0  0  0  0  0  0  0  0  0
   -0.7143    2.0624    0.0000 C   0  0  0  0  0  0  0  0  0  0  0  0
   -0.7142    2.8874    0.0000 C   0  0  0  0  0  0  0  0  0  0  0  0
   -0.0467    3.3723    0.0000 S   0  0  0  0  0  0  0  0  0  0  0  0
   -0.3015    4.1569    0.0000 C   0  0  0  0  0  0  0  0  0  0  0  0
   -1.1265    4.1570    0.0000 C   0  0  0  0  0  0  0  0  0  0  0  0
   -1.3816    3.3724    0.0000 C   0  0  0  0  0  0  0  0  0  0  0  0
    0.0000    0.0000    0.0000 H   0  0  0  0  0  0  0  0  0  0  0  0
    0.0000    0.0000    0.0000 H   0  0  0  0  0  0  0  0  0  0  0  0
    0.0000    0.0000    0.0000 H   0  0  0  0  0  0  0  0  0  0  0  0
    0.0000    0.0000    0.0000 H   0  0  0  0  0  0  0  0  0  0  0  0
    0.0000    0.0000    0.0000 H   0  0  0  0  0  0  0  0  0  0  0  0
    0.0000    0.0000    0.0000 H   0  0  0  0  0  0  0  0  0  0  0  0
    0.0000    0.0000    0.0000 H   0  0  0  0  0  0  0  0  0  0  0  0
    0.0000    0.0000    0.0000 H   0  0  0  0  0  0  0  0  0  0  0  0
    0.0000    0.0000    0.0000 H   0  0  0  0  0  0  0  0  0  0  0  0
    0.0000    0.0000    0.0000 H   0  0  0  0  0  0  0  0  0  0  0  0
    0.0000    0.0000    0.0000 H   0  0  0  0  0  0  0  0  0  0  0  0
    0.0000    0.0000    0.0000 H   0  0  0  0  0  0  0  0  0  0  0  0
    0.0000    0.0000    0.0000 H   0  0  0  0  0  0  0  0  0  0  0  0
    0.0000    0.0000    0.0000 H   0  0  0  0  0  0  0  0  0  0  0  0
    0.0000    0.0000    0.0000 H   0  0  0  0  0  0  0  0  0  0  0  0
    0.0000    0.0000    0.0000 H   0  0  0  0  0  0  0  0  0  0  0  0
    0.0000    0.0000    0.0000 H   0  0  0  0  0  0  0  0  0  0  0  0
    0.0000    0.0000    0.0000 H   0  0  0  0  0  0  0  0  0  0  0  0
    0.0000    0.0000    0.0000 H   0  0  0  0  0  0  0  0  0  0  0  0
    0.0000    0.0000    0.0000 H   0  0  0  0  0  0  0  0  0  0  0  0
    0.0000    0.0000    0.0000 H   0  0  0  0  0  0  0  0  0  0  0  0
    0.0000    0.0000    0.0000 H   0  0  0  0  0  0  0  0  0  0  0  0
    0.0000    0.0000    0.0000 H   0  0  0  0  0  0  0  0  0  0  0  0
    0.0000    0.0000    0.0000 H   0  0  0  0  0  0  0  0  0  0  0  0
  1 20  1  0
  1  2  1  0
  2  3  1  0
  3  7  1  0
  3  4  2  0
  4 10  1  0
  5 11  2  0
  1  6  1  0
  6  5  1  0
  6 18  2  0
  7  8  2  0
  8  9  1  0
  9 15  1  0
 10  9  2  0
 11 25  1  0
 11 12  1  0
 12 13  2  0
 12 14  1  0
 15 16  2  0
 15 17  1  0
 18 19  1  0
 20 19  2  0
 20 21  1  0
 21 22  1  0
 22 23  1  0
 23 24  1  0
 26 27  1  0
 26 30  2  0
 27 28  1  0
 28 29  2  0
 30 29  1  0
 25 26  1  0
  2 31  1  0
  2 32  1  0
  4 33  1  0
  5 34  1  0
  7 35  1  0
  8 36  1  0
 10 37  1  0
 14 38  1  0
 17 39  1  0
 18 40  1  0
 21 41  1  0
 21 42  1  0
 22 43  1  0
 22 44  1  0
 23 45  1  0
 23 46  1  0
 24 47  1  0
 24 48  1  0
 24 49  1  0
 25 50  1  0
 25 51  1  0
 28 52  1  0
 29 53  1  0
 30 54  1  0
M  END
>  <ALOGPS_LOGP>  (1) 
3.57

>  <ALOGPS_LOGS>  (1) 
-4.69

>  <ALOGPS_SOLUBILITY>  (1) 
8.66e-03 g/l

>  <DATABASE_ID>  (1) 
DB00876

>  <DATABASE_NAME>  (1) 
drugbank

>  <DRUGBANK_ID>  (1) 
DB00876

>  <DRUG_GROUPS>  (1) 
approved

>  <EXACT_MASS>  (1) 
424.145677956

>  <FORMULA>  (1) 
C23H24N2O4S

>  <GENERIC_NAME>  (1) 
Eprosartan

>  <INCHI_IDENTIFIER>  (1) 
InChI=1S/C23H24N2O4S/c1-2-3-6-21-24-14-19(12-18(23(28)29)13-20-5-4-11-30-20)25(21)15-16-7-9-17(10-8-16)22(26)27/h4-5,7-12,14H,2-3,6,13,15H2,1H3,(H,26,27)(H,28,29)/b18-12+

>  <INCHI_KEY>  (1) 
OROAFUQRIXKEMV-LDADJPATSA-N

>  <INTERNATIONAL_BRANDS>  (1) 
Eprozar; Futuran

>  <JCHEM_ACCEPTOR_COUNT>  (1) 
5

>  <JCHEM_AVERAGE_POLARIZABILITY>  (1) 
45.29168425040713

>  <JCHEM_BIOAVAILABILITY>  (1) 
1

>  <JCHEM_DONOR_COUNT>  (1) 
2

>  <JCHEM_FORMAL_CHARGE>  (1) 
0

>  <JCHEM_GHOSE_FILTER>  (1) 
1

>  <JCHEM_IUPAC>  (1) 
4-({2-butyl-5-[(1E)-2-carboxy-2-(thiophen-2-ylmethyl)eth-1-en-1-yl]-1H-imidazol-1-yl}methyl)benzoic acid

>  <JCHEM_LOGP>  (1) 
3.797230393590431

>  <JCHEM_MDDR_LIKE_RULE>  (1) 
1

>  <JCHEM_NUMBER_OF_RINGS>  (1) 
3

>  <JCHEM_PHYSIOLOGICAL_CHARGE>  (1) 
-2

>  <JCHEM_PKA>  (1) 
4.311688293613994

>  <JCHEM_PKA_STRONGEST_ACIDIC>  (1) 
3.6324817466992205

>  <JCHEM_PKA_STRONGEST_BASIC>  (1) 
6.932609566145001

>  <JCHEM_POLAR_SURFACE_AREA>  (1) 
92.42

>  <JCHEM_REFRACTIVITY>  (1) 
117.02430000000001

>  <JCHEM_ROTATABLE_BOND_COUNT>  (1) 
10

>  <JCHEM_RULE_OF_FIVE>  (1) 
1

>  <JCHEM_TRADITIONAL_IUPAC>  (1) 
eprosartan

>  <JCHEM_VEBER_RULE>  (1) 
0

>  <MOLECULAR_WEIGHT>  (1) 
424.513

>  <PRODUCTS>  (1) 
Eprosartan Mesylate; Teveten; Teveten HCT; Teveten Plus; Teveten Tablets 300 mg

>  <SALTS>  (1) 
Eprosartan mesylate

>  <SECONDARY_ACCESSION_NUMBERS>  (1) 
APRD00950

>  <SMILES>  (1) 
CCCCC1=NC=C(\C=C(/CC2=CC=CS2)C(O)=O)N1CC1=CC=C(C=C1)C(O)=O

>  <SYNONYMS>  (1) 
Ã‰prosartan; Eprosartan; Eprosartanum

$$$$
