2140
     RDKit          2D

 29 29  0  0  0  0  0  0  0  0999 V2000
    2.3645    0.4125    0.0000 I   0  0  0  0  0  0  0  0  0  0  0  0
    5.2224    0.4125    0.0000 I   0  0  0  0  0  0  0  0  0  0  0  0
    3.7935   -2.0625    0.0000 I   0  0  0  0  0  0  0  0  0  0  0  0
    5.2224   -2.0625    0.0000 O   0  0  0  0  0  0  0  0  0  0  0  0
    5.9370   -0.8250    0.0000 O   0  0  0  0  0  0  0  0  0  0  0  0
    3.0790   -2.4751    0.0000 O   0  0  0  0  0  0  0  0  0  0  0  0
    5.2224    1.2375    0.0000 O   0  0  0  0  0  0  0  0  0  0  0  0
    2.3645   -1.2375    0.0000 N   0  0  0  0  0  0  0  0  0  0  0  0
    3.7935    1.2375    0.0000 N   0  0  0  0  0  0  0  0  0  0  0  0
    3.0790   -0.8250    0.0000 C   0  0  0  0  0  0  0  0  0  0  0  0
    3.7935    0.4125    0.0000 C   0  0  0  0  0  0  0  0  0  0  0  0
    3.0790    0.0000    0.0000 C   0  0  0  0  0  0  0  0  0  0  0  0
    4.5080   -0.8250    0.0000 C   0  0  0  0  0  0  0  0  0  0  0  0
    4.5080    0.0000    0.0000 C   0  0  0  0  0  0  0  0  0  0  0  0
    3.7935   -1.2375    0.0000 C   0  0  0  0  0  0  0  0  0  0  0  0
    5.2224   -1.2375    0.0000 C   0  0  0  0  0  0  0  0  0  0  0  0
    2.3645   -2.0625    0.0000 C   0  0  0  0  0  0  0  0  0  0  0  0
    4.5080    1.6500    0.0000 C   0  0  0  0  0  0  0  0  0  0  0  0
    1.6500   -2.4751    0.0000 C   0  0  0  0  0  0  0  0  0  0  0  0
    4.5080    2.4751    0.0000 C   0  0  0  0  0  0  0  0  0  0  0  0
    0.0000    0.0000    0.0000 H   0  0  0  0  0  0  0  0  0  0  0  0
    0.0000    0.0000    0.0000 H   0  0  0  0  0  0  0  0  0  0  0  0
    0.0000    0.0000    0.0000 H   0  0  0  0  0  0  0  0  0  0  0  0
    0.0000    0.0000    0.0000 H   0  0  0  0  0  0  0  0  0  0  0  0
    0.0000    0.0000    0.0000 H   0  0  0  0  0  0  0  0  0  0  0  0
    0.0000    0.0000    0.0000 H   0  0  0  0  0  0  0  0  0  0  0  0
    0.0000    0.0000    0.0000 H   0  0  0  0  0  0  0  0  0  0  0  0
    0.0000    0.0000    0.0000 H   0  0  0  0  0  0  0  0  0  0  0  0
    0.0000    0.0000    0.0000 H   0  0  0  0  0  0  0  0  0  0  0  0
  1 12  1  0
  2 14  1  0
  3 15  1  0
  4 16  1  0
  5 16  2  0
  6 17  2  0
  7 18  2  0
  8 10  1  0
  8 17  1  0
  9 11  1  0
  9 18  1  0
 10 12  2  0
 10 15  1  0
 11 12  1  0
 11 14  2  0
 13 14  1  0
 13 15  2  0
 13 16  1  0
 17 19  1  0
 18 20  1  0
  4 21  1  0
  8 22  1  0
  9 23  1  0
 19 24  1  0
 19 25  1  0
 19 26  1  0
 20 27  1  0
 20 28  1  0
 20 29  1  0
M  END
>  <ALOGPS_LOGP>  (1) 
2.27

>  <ALOGPS_LOGS>  (1) 
-3.76

>  <ALOGPS_SOLUBILITY>  (1) 
1.07e-01 g/l

>  <DATABASE_ID>  (1) 
DB00271

>  <DATABASE_NAME>  (1) 
drugbank

>  <DRUGBANK_ID>  (1) 
DB00271

>  <DRUG_GROUPS>  (1) 
approved; vet_approved

>  <EXACT_MASS>  (1) 
613.769637046

>  <FORMULA>  (1) 
C11H9I3N2O4

>  <GENERIC_NAME>  (1) 
Diatrizoate

>  <INCHI_IDENTIFIER>  (1) 
InChI=1S/C11H9I3N2O4/c1-3(17)15-9-6(12)5(11(19)20)7(13)10(8(9)14)16-4(2)18/h1-2H3,(H,15,17)(H,16,18)(H,19,20)

>  <INCHI_KEY>  (1) 
YVPYQUNUQOZFHG-UHFFFAOYSA-N

>  <INTERNATIONAL_BRANDS>  (1) 
Cardiografin; Hypaque; Odiston; Urovison; Urovist

>  <JCHEM_ACCEPTOR_COUNT>  (1) 
4

>  <JCHEM_AVERAGE_POLARIZABILITY>  (1) 
38.428271697292196

>  <JCHEM_BIOAVAILABILITY>  (1) 
1

>  <JCHEM_DONOR_COUNT>  (1) 
3

>  <JCHEM_FORMAL_CHARGE>  (1) 
0

>  <JCHEM_GHOSE_FILTER>  (1) 
0

>  <JCHEM_IUPAC>  (1) 
3,5-diacetamido-2,4,6-triiodobenzoic acid

>  <JCHEM_LOGP>  (1) 
2.8930828936666666

>  <JCHEM_MDDR_LIKE_RULE>  (1) 
0

>  <JCHEM_NUMBER_OF_RINGS>  (1) 
1

>  <JCHEM_PHYSIOLOGICAL_CHARGE>  (1) 
-1

>  <JCHEM_PKA>  (1) 
11.841682571367873

>  <JCHEM_PKA_STRONGEST_ACIDIC>  (1) 
2.1676699700991264

>  <JCHEM_PKA_STRONGEST_BASIC>  (1) 
-4.240460823875686

>  <JCHEM_POLAR_SURFACE_AREA>  (1) 
95.5

>  <JCHEM_REFRACTIVITY>  (1) 
103.12769999999999

>  <JCHEM_ROTATABLE_BOND_COUNT>  (1) 
3

>  <JCHEM_RULE_OF_FIVE>  (1) 
0

>  <JCHEM_TRADITIONAL_IUPAC>  (1) 
diatrizoate

>  <JCHEM_VEBER_RULE>  (1) 
0

>  <MOLECULAR_WEIGHT>  (1) 
613.9136

>  <PRODUCTS>  (1) 
Cystografin; Cystografin Dilute; Gastrografin; Gastrografin - Liq Orl; Gastrografin Liq; Hypaque Oral Liquid - 50g/120ml; Hypaque Oral Liquid 50gm/120ml; Hypaque Oral Powder; Hypaque Oral Powder 0.9974g/g; Hypaque Pwr 100%; Hypaque Sodium 50% - Liq IV; Hypaque Sodium 50% Liq; Hypaque Sodium Liq 50%; Hypaque-M 18%; Hypaque-M 18% Liq; Hypaque-M 30%; Hypaque-M 30% Liq; Hypaque-M 60%; Hypaque-M 60% Liq; Hypaque-M 76%; Hypaque-M 76% Liq; Hypaque-M Liq 76% USP; Md Gastroview; Md-60; Md-76; Md-76r; Reno-60; Reno-M-60; Reno-M-dip Liq 30%; Reno-dip; Renocal-76; Renografin-60 - Liq IV; Renografin-60 Liq; Renografin-76 - Liq IV; Renografin-76 Liq; Sinografin; Sinografin - Liq Iu

>  <SALTS>  (1) 
Diatrizoate meglumine; Diatrizoate sodium

>  <SECONDARY_ACCESSION_NUMBERS>  (1) 
APRD00913

>  <SMILES>  (1) 
CC(=O)NC1=C(I)C(C(O)=O)=C(I)C(NC(C)=O)=C1I

>  <SYNONYMS>  (1) 
3,5-diacetamido-2,4,6-triiodobenzoic acid; Amidotrizoate; Amidotrizoic Acid; Diatrizoic acid

$$$$
