375
     RDKit          2D

 46 45  0  0  1  0  0  0  0  0999 V2000
    3.3626    0.8043    0.0000 Cl  0  0  0  0  0  0  0  0  0  0  0  0
    5.2040    1.5189    0.0000 O   0  0  0  0  0  0  0  0  0  0  0  0
    4.7299    3.6804    0.0000 N   0  0  0  0  0  0  0  0  0  0  0  0
    6.8734    4.0929    0.0000 N   0  0  0  0  0  0  0  0  0  0  0  0
    2.5864    4.0929    0.0000 N   0  0  0  0  0  0  0  0  0  0  0  0
    9.0168    3.6804    0.0000 N   0  0  0  0  0  0  0  0  0  0  0  0
    0.4430    3.6804    0.0000 N   0  0  0  0  0  0  0  0  0  0  0  0
    4.7915    0.8043    0.0000 C   0  0  0  0  0  0  0  0  0  0  0  0
    5.6166    0.8043    0.0000 C   0  0  0  0  0  0  0  0  0  0  0  0
    4.0771    0.3918    0.0000 C   0  0  0  0  0  0  0  0  0  0  0  0
    5.4444    4.0929    0.0000 C   0  0  0  0  0  0  0  0  0  0  0  0
    4.0154    4.0929    0.0000 C   0  0  0  0  0  0  0  0  0  0  0  0
    6.1588    3.6804    0.0000 C   0  0  0  0  0  0  0  0  0  0  0  0
    3.3009    3.6804    0.0000 C   0  0  0  0  0  0  0  0  0  0  0  0
    7.5879    3.6804    0.0000 C   0  0  0  0  0  0  0  0  0  0  0  0
    1.8720    3.6804    0.0000 C   0  0  0  0  0  0  0  0  0  0  0  0
    8.3023    4.0929    0.0000 C   0  0  0  0  0  0  0  0  0  0  0  0
    1.1575    4.0929    0.0000 C   0  0  0  0  0  0  0  0  0  0  0  0
    0.0000    0.0000    0.0000 H   0  0  0  0  0  0  0  0  0  0  0  0
    0.0000    0.0000    0.0000 H   0  0  0  0  0  0  0  0  0  0  0  0
    0.0000    0.0000    0.0000 H   0  0  0  0  0  0  0  0  0  0  0  0
    0.0000    0.0000    0.0000 H   0  0  0  0  0  0  0  0  0  0  0  0
    0.0000    0.0000    0.0000 H   0  0  0  0  0  0  0  0  0  0  0  0
    0.0000    0.0000    0.0000 H   0  0  0  0  0  0  0  0  0  0  0  0
    0.0000    0.0000    0.0000 H   0  0  0  0  0  0  0  0  0  0  0  0
    0.0000    0.0000    0.0000 H   0  0  0  0  0  0  0  0  0  0  0  0
    0.0000    0.0000    0.0000 H   0  0  0  0  0  0  0  0  0  0  0  0
    0.0000    0.0000    0.0000 H   0  0  0  0  0  0  0  0  0  0  0  0
    0.0000    0.0000    0.0000 H   0  0  0  0  0  0  0  0  0  0  0  0
    0.0000    0.0000    0.0000 H   0  0  0  0  0  0  0  0  0  0  0  0
    0.0000    0.0000    0.0000 H   0  0  0  0  0  0  0  0  0  0  0  0
    0.0000    0.0000    0.0000 H   0  0  0  0  0  0  0  0  0  0  0  0
    0.0000    0.0000    0.0000 H   0  0  0  0  0  0  0  0  0  0  0  0
    0.0000    0.0000    0.0000 H   0  0  0  0  0  0  0  0  0  0  0  0
    0.0000    0.0000    0.0000 H   0  0  0  0  0  0  0  0  0  0  0  0
    0.0000    0.0000    0.0000 H   0  0  0  0  0  0  0  0  0  0  0  0
    0.0000    0.0000    0.0000 H   0  0  0  0  0  0  0  0  0  0  0  0
    0.0000    0.0000    0.0000 H   0  0  0  0  0  0  0  0  0  0  0  0
    0.0000    0.0000    0.0000 H   0  0  0  0  0  0  0  0  0  0  0  0
    0.0000    0.0000    0.0000 H   0  0  0  0  0  0  0  0  0  0  0  0
    0.0000    0.0000    0.0000 H   0  0  0  0  0  0  0  0  0  0  0  0
    0.0000    0.0000    0.0000 H   0  0  0  0  0  0  0  0  0  0  0  0
    0.0000    0.0000    0.0000 H   0  0  0  0  0  0  0  0  0  0  0  0
    0.0000    0.0000    0.0000 H   0  0  0  0  0  0  0  0  0  0  0  0
    0.0000    0.0000    0.0000 H   0  0  0  0  0  0  0  0  0  0  0  0
    0.0000    0.0000    0.0000 H   0  0  0  0  0  0  0  0  0  0  0  0
  1 10  1  0
  2  8  1  0
  2  9  1  0
  3 11  1  0
  3 12  1  0
  4 13  1  0
  4 15  1  0
  5 14  1  0
  5 16  1  0
  6 17  1  0
  7 18  1  0
  8  9  1  0
  8 10  1  0
 11 13  1  0
 12 14  1  0
 15 17  1  0
 16 18  1  0
  3 19  1  0
  4 20  1  0
  5 21  1  0
  6 22  1  0
  6 23  1  0
  7 24  1  0
  7 25  1  0
  8 26  1  0
  9 27  1  0
  9 28  1  0
 10 29  1  0
 10 30  1  0
 11 31  1  0
 11 32  1  0
 12 33  1  0
 12 34  1  0
 13 35  1  0
 13 36  1  0
 14 37  1  0
 14 38  1  0
 15 39  1  0
 15 40  1  0
 16 41  1  0
 16 42  1  0
 17 43  1  0
 17 44  1  0
 18 45  1  0
 18 46  1  0
M  END
>  <DATABASE_ID>  (1) 
DB00375

>  <DATABASE_NAME>  (1) 
drugbank

>  <DRUGBANK_ID>  (1) 
DB00375

>  <DRUG_GROUPS>  (1) 
approved

>  <EXACT_MASS>  (1) 
281.19823825

>  <FORMULA>  (1) 
C11H28ClN5O

>  <GENERIC_NAME>  (1) 
Colestipol

>  <INCHI_IDENTIFIER>  (1) 
InChI=1S/C8H23N5.C3H5ClO/c9-1-3-11-5-7-13-8-6-12-4-2-10;4-1-3-2-5-3/h11-13H,1-10H2;3H,1-2H2

>  <INCHI_KEY>  (1) 
GMRWGQCZJGVHKL-UHFFFAOYSA-N

>  <INTERNATIONAL_BRANDS>  (1) 
Cholestabyl; Lestid

>  <JCHEM_ACCEPTOR_COUNT>  (1) 
5

>  <JCHEM_AVERAGE_POLARIZABILITY>  (1) 
23.970034700248945

>  <JCHEM_BIOAVAILABILITY>  (1) 
1

>  <JCHEM_DONOR_COUNT>  (1) 
5

>  <JCHEM_FORMAL_CHARGE>  (1) 
0

>  <JCHEM_GHOSE_FILTER>  (1) 
0

>  <JCHEM_IUPAC>  (1) 
(2-aminoethyl)[2-({2-[(2-aminoethyl)amino]ethyl}amino)ethyl]amine; 2-(chloromethyl)oxirane

>  <JCHEM_LOGP>  (1) 
-2.515652919

>  <JCHEM_MDDR_LIKE_RULE>  (1) 
0

>  <JCHEM_NUMBER_OF_RINGS>  (1) 
1

>  <JCHEM_PHYSIOLOGICAL_CHARGE>  (1) 
3

>  <JCHEM_PKA_STRONGEST_BASIC>  (1) 
9.814480476075257

>  <JCHEM_POLAR_SURFACE_AREA>  (1) 
88.13

>  <JCHEM_REFRACTIVITY>  (1) 
56.041800000000016

>  <JCHEM_ROTATABLE_BOND_COUNT>  (1) 
11

>  <JCHEM_RULE_OF_FIVE>  (1) 
1

>  <JCHEM_TRADITIONAL_IUPAC>  (1) 
epichlorohydrin; tetraethylenepentamine

>  <JCHEM_VEBER_RULE>  (1) 
0

>  <MOLECULAR_WEIGHT>  (1) 
281.826

>  <PRODUCTS>  (1) 
Colestid; Colestid Granules; Colestid Orange Granules; Colestid Tablets 1 G; Colestipol Hydrochloride; Flavored Colestid

>  <SALTS>  (1) 
Colestipol hydrochloride

>  <SECONDARY_ACCESSION_NUMBERS>  (1) 
APRD00884

>  <SMILES>  (1) 
ClCC1CO1.NCCNCCNCCNCCN

>  <SYNONYMS>  (1) 
Colestipolum; Copolymer of bis(2-aminoethyl)amine and 2-(chloromethyl)oxirane

$$$$
