
     RDKit          2D

 47 50  0  0  0  0  0  0  0  0999 V2000
   -0.3894   -0.9339    0.0000 C   0  0  0  0  0  0  0  0  0  0  0  0
    0.0616   -1.5616    0.0000 N   0  0  0  0  0  0  0  0  0  0  0  0
   -0.3894   -2.1893    0.0000 N   0  0  0  0  0  0  0  0  0  0  0  0
   -1.1544   -1.1693    0.0000 C   0  0  0  0  0  0  0  0  0  0  0  0
   -0.1344   -0.1493    0.0000 C   0  0  0  0  0  0  0  0  0  0  0  0
   -1.1544   -1.9539    0.0000 C   0  0  0  0  0  0  0  0  0  0  0  0
    0.6501   -0.0121    0.0000 N   0  0  0  0  0  0  0  0  0  0  0  0
   -0.6444    0.4194    0.0000 O   0  0  0  0  0  0  0  0  0  0  0  0
   -0.1344   -2.9543    0.0000 C   0  0  0  0  0  0  0  0  0  0  0  0
   -1.8213   -0.7770    0.0000 C   0  0  0  0  0  0  0  0  0  0  0  0
   -1.8213   -2.3659    0.0000 C   0  0  0  0  0  0  0  0  0  0  0  0
   -2.5078   -1.1693    0.0000 C   0  0  0  0  0  0  0  0  0  0  0  0
   -2.5078   -1.9539    0.0000 C   0  0  0  0  0  0  0  0  0  0  0  0
    0.9838    0.7966    0.0000 C   0  0  0  0  0  0  0  0  0  0  0  0
    0.3512    1.4272    0.0000 C   0  0  0  0  0  0  0  0  0  0  0  0
    1.8770    0.7977    0.0000 C   0  0  0  0  0  0  0  0  0  0  0  0
    2.5078    1.4302    0.0000 C   0  0  0  0  0  0  0  0  0  0  0  0
    0.3500    2.3205    0.0000 C   0  0  0  0  0  0  0  0  0  0  0  0
    2.5066    2.3235    0.0000 C   0  0  0  0  0  0  0  0  0  0  0  0
    0.9808    2.9531    0.0000 C   0  0  0  0  0  0  0  0  0  0  0  0
    1.8741    2.9543    0.0000 C   0  0  0  0  0  0  0  0  0  0  0  0
    1.5365    2.2472    0.0000 N   0  0  0  0  0  0  0  0  0  0  0  0
    1.2869    1.4795    0.0000 C   0  0  0  0  0  0  0  0  0  0  0  0
    0.0000    0.0000    0.0000 H   0  0  0  0  0  0  0  0  0  0  0  0
    0.0000    0.0000    0.0000 H   0  0  0  0  0  0  0  0  0  0  0  0
    0.0000    0.0000    0.0000 H   0  0  0  0  0  0  0  0  0  0  0  0
    0.0000    0.0000    0.0000 H   0  0  0  0  0  0  0  0  0  0  0  0
    0.0000    0.0000    0.0000 H   0  0  0  0  0  0  0  0  0  0  0  0
    0.0000    0.0000    0.0000 H   0  0  0  0  0  0  0  0  0  0  0  0
    0.0000    0.0000    0.0000 H   0  0  0  0  0  0  0  0  0  0  0  0
    0.0000    0.0000    0.0000 H   0  0  0  0  0  0  0  0  0  0  0  0
    0.0000    0.0000    0.0000 H   0  0  0  0  0  0  0  0  0  0  0  0
    0.0000    0.0000    0.0000 H   0  0  0  0  0  0  0  0  0  0  0  0
    0.0000    0.0000    0.0000 H   0  0  0  0  0  0  0  0  0  0  0  0
    0.0000    0.0000    0.0000 H   0  0  0  0  0  0  0  0  0  0  0  0
    0.0000    0.0000    0.0000 H   0  0  0  0  0  0  0  0  0  0  0  0
    0.0000    0.0000    0.0000 H   0  0  0  0  0  0  0  0  0  0  0  0
    0.0000    0.0000    0.0000 H   0  0  0  0  0  0  0  0  0  0  0  0
    0.0000    0.0000    0.0000 H   0  0  0  0  0  0  0  0  0  0  0  0
    0.0000    0.0000    0.0000 H   0  0  0  0  0  0  0  0  0  0  0  0
    0.0000    0.0000    0.0000 H   0  0  0  0  0  0  0  0  0  0  0  0
    0.0000    0.0000    0.0000 H   0  0  0  0  0  0  0  0  0  0  0  0
    0.0000    0.0000    0.0000 H   0  0  0  0  0  0  0  0  0  0  0  0
    0.0000    0.0000    0.0000 H   0  0  0  0  0  0  0  0  0  0  0  0
    0.0000    0.0000    0.0000 H   0  0  0  0  0  0  0  0  0  0  0  0
    0.0000    0.0000    0.0000 H   0  0  0  0  0  0  0  0  0  0  0  0
    0.0000    0.0000    0.0000 H   0  0  0  0  0  0  0  0  0  0  0  0
  2  1  2  0
  4  1  1  0
  5  1  1  0
  3  2  1  0
  9  3  1  0
  6  3  1  0
  6  4  2  0
 10  4  1  0
  7  5  1  0
  8  5  2  0
 11  6  1  0
 14  7  1  6
 12 10  2  0
 13 11  2  0
 13 12  1  0
 15 14  1  0
 16 14  1  0
 18 15  1  0
 17 16  1  0
 19 17  1  0
 20 18  1  0
 21 19  1  0
 21 20  1  0
 17 22  1  0
 18 22  1  0
 22 23  1  0
  7 24  1  0
  9 25  1  0
  9 26  1  0
  9 27  1  0
 10 28  1  0
 11 29  1  0
 12 30  1  0
 13 31  1  0
 14 32  1  0
 15 33  1  0
 15 34  1  0
 16 35  1  0
 16 36  1  0
 17 37  1  1
 18 38  1  1
 19 39  1  0
 19 40  1  0
 20 41  1  0
 20 42  1  0
 21 43  1  0
 21 44  1  0
 23 45  1  0
 23 46  1  0
 23 47  1  0
M  END
>  <ALOGPS_LOGP>  (1) 
2.64

>  <ALOGPS_LOGS>  (1) 
-2.86

>  <ALOGPS_SOLUBILITY>  (1) 
4.34e-01 g/l

>  <DATABASE_ID>  (1) 
DB00889

>  <DATABASE_NAME>  (1) 
drugbank

>  <DRUGBANK_ID>  (1) 
DB00889

>  <DRUG_GROUPS>  (1) 
approved; investigational

>  <EXACT_MASS>  (1) 
312.195011409

>  <FORMULA>  (1) 
C18H24N4O

>  <GENERIC_NAME>  (1) 
Granisetron

>  <INCHI_IDENTIFIER>  (1) 
InChI=1S/C18H24N4O/c1-21-13-6-5-7-14(21)11-12(10-13)19-18(23)17-15-8-3-4-9-16(15)22(2)20-17/h3-4,8-9,12-14H,5-7,10-11H2,1-2H3,(H,19,23)/t12-,13+,14-

>  <INCHI_KEY>  (1) 
MFWNKCLOYSRHCJ-BTTYYORXSA-N

>  <INTERNATIONAL_BRANDS>  (1) 
Granisol; Kytril

>  <JCHEM_ACCEPTOR_COUNT>  (1) 
3

>  <JCHEM_ATOM_COUNT>  (1) 
47

>  <JCHEM_AVERAGE_POLARIZABILITY>  (1) 
35.5700404369317

>  <JCHEM_BIOAVAILABILITY>  (1) 
1

>  <JCHEM_DONOR_COUNT>  (1) 
1

>  <JCHEM_FORMAL_CHARGE>  (1) 
0

>  <JCHEM_GHOSE_FILTER>  (1) 
1

>  <JCHEM_IUPAC>  (1) 
1-methyl-N-[(1R,3r,5S)-9-methyl-9-azabicyclo[3.3.1]nonan-3-yl]-1H-indazole-3-carboxamide

>  <JCHEM_LOGP>  (1) 
1.8768568383333333

>  <JCHEM_MDDR_LIKE_RULE>  (1) 
0

>  <JCHEM_NUMBER_OF_RINGS>  (1) 
4

>  <JCHEM_PHYSIOLOGICAL_CHARGE>  (1) 
1

>  <JCHEM_PKA_STRONGEST_ACIDIC>  (1) 
14.750398416936857

>  <JCHEM_PKA_STRONGEST_BASIC>  (1) 
9.000258953653715

>  <JCHEM_POLAR_SURFACE_AREA>  (1) 
50.160000000000004

>  <JCHEM_REFRACTIVITY>  (1) 
101.82569999999998

>  <JCHEM_ROTATABLE_BOND_COUNT>  (1) 
2

>  <JCHEM_RULE_OF_FIVE>  (1) 
1

>  <JCHEM_TRADITIONAL_IUPAC>  (1) 
granisetron

>  <JCHEM_VEBER_RULE>  (1) 
0

>  <MOLECULAR_WEIGHT>  (1) 
312.417

>  <PRODUCTS>  (1) 
Apo-granisetron; Granisetron; Granisetron Hydrochloride; Granisetron Hydrochloride Injection; Granisetron Hydrochloride Injection Sdz; Kytril 1mg/1ml; Kytril Tablets 1mg; Nat-granisetron; Sancuso; Sustol

>  <SALTS>  (1) 
Granisetron hydrochloride

>  <SECONDARY_ACCESSION_NUMBERS>  (1) 
APRD01002

>  <SMILES>  (1) 
CN1N=C(C(=O)N[C@@H]2C[C@@H]3CCC[C@H](C2)N3C)C2=C1C=CC=C2

>  <SYNONYMS>  (1) 
granisétron; granisetrón; granisetronum

$$$$
