974
     RDKit          2D

 36 35  0  0  0  0  0  0  0  0999 V2000
    2.8075    2.0625    0.0000 O   0  0  0  0  0  0  0  0  0  0  0  0
    7.0944    2.0625    0.0000 O   0  0  0  0  0  0  0  0  0  0  0  0
    2.0930   -0.8250    0.0000 O   0  0  0  0  0  0  0  0  0  0  0  0
    5.6655   -2.0625    0.0000 O   0  0  0  0  0  0  0  0  0  0  0  0
    3.5220    0.8250    0.0000 O   0  0  0  0  0  0  0  0  0  0  0  0
    6.3799    0.8250    0.0000 O   0  0  0  0  0  0  0  0  0  0  0  0
    2.8075    0.4125    0.0000 O   0  0  0  0  0  0  0  0  0  0  0  0
    4.2365   -2.0625    0.0000 O   0  0  0  0  0  0  0  0  0  0  0  0
    4.9509    1.6500    0.0000 N   0  0  0  0  0  0  0  0  0  0  0  0
    4.2365   -0.4125    0.0000 N   0  0  0  0  0  0  0  0  0  0  0  0
    4.9509    0.8250    0.0000 C   0  0  0  0  0  0  0  0  0  0  0  0
    4.2365    0.4125    0.0000 C   0  0  0  0  0  0  0  0  0  0  0  0
    4.2365    2.0625    0.0000 C   0  0  0  0  0  0  0  0  0  0  0  0
    5.6655    2.0625    0.0000 C   0  0  0  0  0  0  0  0  0  0  0  0
    3.5220   -0.8250    0.0000 C   0  0  0  0  0  0  0  0  0  0  0  0
    4.9509   -0.8250    0.0000 C   0  0  0  0  0  0  0  0  0  0  0  0
    3.5220    1.6500    0.0000 C   0  0  0  0  0  0  0  0  0  0  0  0
    6.3799    1.6500    0.0000 C   0  0  0  0  0  0  0  0  0  0  0  0
    2.8075   -0.4125    0.0000 C   0  0  0  0  0  0  0  0  0  0  0  0
    4.9509   -1.6500    0.0000 C   0  0  0  0  0  0  0  0  0  0  0  0
    0.0000    0.0000    0.0000 H   0  0  0  0  0  0  0  0  0  0  0  0
    0.0000    0.0000    0.0000 H   0  0  0  0  0  0  0  0  0  0  0  0
    0.0000    0.0000    0.0000 H   0  0  0  0  0  0  0  0  0  0  0  0
    0.0000    0.0000    0.0000 H   0  0  0  0  0  0  0  0  0  0  0  0
    0.0000    0.0000    0.0000 H   0  0  0  0  0  0  0  0  0  0  0  0
    0.0000    0.0000    0.0000 H   0  0  0  0  0  0  0  0  0  0  0  0
    0.0000    0.0000    0.0000 H   0  0  0  0  0  0  0  0  0  0  0  0
    0.0000    0.0000    0.0000 H   0  0  0  0  0  0  0  0  0  0  0  0
    0.0000    0.0000    0.0000 H   0  0  0  0  0  0  0  0  0  0  0  0
    0.0000    0.0000    0.0000 H   0  0  0  0  0  0  0  0  0  0  0  0
    0.0000    0.0000    0.0000 H   0  0  0  0  0  0  0  0  0  0  0  0
    0.0000    0.0000    0.0000 H   0  0  0  0  0  0  0  0  0  0  0  0
    0.0000    0.0000    0.0000 H   0  0  0  0  0  0  0  0  0  0  0  0
    0.0000    0.0000    0.0000 H   0  0  0  0  0  0  0  0  0  0  0  0
    0.0000    0.0000    0.0000 H   0  0  0  0  0  0  0  0  0  0  0  0
    0.0000    0.0000    0.0000 H   0  0  0  0  0  0  0  0  0  0  0  0
  1 17  1  0
  2 18  1  0
  3 19  1  0
  4 20  1  0
  5 17  2  0
  6 18  2  0
  7 19  2  0
  8 20  2  0
  9 11  1  0
  9 13  1  0
  9 14  1  0
 10 12  1  0
 10 15  1  0
 10 16  1  0
 11 12  1  0
 13 17  1  0
 14 18  1  0
 15 19  1  0
 16 20  1  0
  1 21  1  0
  2 22  1  0
  3 23  1  0
  4 24  1  0
 11 25  1  0
 11 26  1  0
 12 27  1  0
 12 28  1  0
 13 29  1  0
 13 30  1  0
 14 31  1  0
 14 32  1  0
 15 33  1  0
 15 34  1  0
 16 35  1  0
 16 36  1  0
M  END
>  <ALOGPS_LOGP>  (1) 
-1.25

>  <ALOGPS_LOGS>  (1) 
-1.50

>  <ALOGPS_SOLUBILITY>  (1) 
9.26e+00 g/l

>  <DATABASE_ID>  (1) 
DB00974

>  <DATABASE_NAME>  (1) 
drugbank

>  <DRUGBANK_ID>  (1) 
DB00974

>  <DRUG_GROUPS>  (1) 
approved; vet_approved

>  <EXACT_MASS>  (1) 
292.090665498

>  <FORMULA>  (1) 
C10H16N2O8

>  <GENERIC_NAME>  (1) 
Edetic Acid

>  <INCHI_IDENTIFIER>  (1) 
InChI=1S/C10H16N2O8/c13-7(14)3-11(4-8(15)16)1-2-12(5-9(17)18)6-10(19)20/h1-6H2,(H,13,14)(H,15,16)(H,17,18)(H,19,20)

>  <INCHI_KEY>  (1) 
KCXVZYZYPLLWCC-UHFFFAOYSA-N

>  <INTERNATIONAL_BRANDS>  (1) 
Cheladrate; Diso-Tate; Endrate; Uni Wash

>  <JCHEM_ACCEPTOR_COUNT>  (1) 
10

>  <JCHEM_AVERAGE_POLARIZABILITY>  (1) 
25.63729534894252

>  <JCHEM_BIOAVAILABILITY>  (1) 
1

>  <JCHEM_DONOR_COUNT>  (1) 
4

>  <JCHEM_FORMAL_CHARGE>  (1) 
0

>  <JCHEM_GHOSE_FILTER>  (1) 
0

>  <JCHEM_IUPAC>  (1) 
2-({2-[bis(carboxymethyl)amino]ethyl}(carboxymethyl)amino)acetic acid

>  <JCHEM_LOGP>  (1) 
-5.221794972590923

>  <JCHEM_MDDR_LIKE_RULE>  (1) 
0

>  <JCHEM_NUMBER_OF_RINGS>  (1) 
0

>  <JCHEM_PHYSIOLOGICAL_CHARGE>  (1) 
-3

>  <JCHEM_PKA>  (1) 
2.356139248167197

>  <JCHEM_PKA_STRONGEST_ACIDIC>  (1) 
1.4861849707397683

>  <JCHEM_PKA_STRONGEST_BASIC>  (1) 
8.127849814728613

>  <JCHEM_POLAR_SURFACE_AREA>  (1) 
155.68

>  <JCHEM_REFRACTIVITY>  (1) 
62.345600000000005

>  <JCHEM_ROTATABLE_BOND_COUNT>  (1) 
11

>  <JCHEM_RULE_OF_FIVE>  (1) 
1

>  <JCHEM_TRADITIONAL_IUPAC>  (1) 
edta

>  <JCHEM_VEBER_RULE>  (1) 
0

>  <MOLECULAR_WEIGHT>  (1) 
292.2426

>  <PRODUCTS>  (1) 
Calcium Disodium Versenate; Calcium Disodium Versenate Liq 200mg/ml; Foam Care Pcmx Surgical Hand Scrub; Largal Ultra; Murine Supplemental Tears

>  <SALTS>  (1) 
Disodium edetate dihydrate; Edetate calcium disodium; Edetate copper disodium; Edetate disodium

>  <SECONDARY_ACCESSION_NUMBERS>  (1) 
APRD01327

>  <SMILES>  (1) 
OC(=O)CN(CCN(CC(O)=O)CC(O)=O)CC(O)=O

>  <SYNONYMS>  (1) 
(ethylenedinitrilo)tetraacetic acid, ion(4âˆ’); {[-(bis-carboxymethyl-amino)-ethyl]-carboxymethyl-amino}-acetic acid; 2,2',2'',2'''-(ethane-1,2-diyldinitrilo)tetraacetate; acide edetique; Acide ethylenediaminetetracetique; Acido edetico; Acidum edeticum; EDTA; EDTA, ion(4-); Ethylenediaminetetraacetate; Ethylenediaminetetraacetic acid; N,N'-1,2-Ethane diylbis-(N-(carboxymethyl)glycine)

$$$$
