 
     RDKit          2D

 52 51  0  0  0  0  0  0  0  0999 V2000
   12.8416  -10.9174    0.0000 C   0  0  0  0  0  0  0  0  0  0  0  0
   13.6781  -10.9174    0.0000 C   0  0  0  0  0  0  0  0  0  0  0  0
   12.0886  -11.3357    0.0000 C   0  0  0  0  0  0  0  0  0  0  0  0
   14.3892  -11.3357    0.0000 C   0  0  0  0  0  0  0  0  0  0  0  0
   11.3775  -10.9174    0.0000 C   0  0  0  0  0  0  0  0  0  0  0  0
   15.1003  -10.9174    0.0000 C   0  0  0  0  0  0  0  0  0  0  0  0
   10.5409  -10.9174    0.0000 C   0  0  0  0  0  0  0  0  0  0  0  0
   15.9369  -10.9174    0.0000 C   0  0  0  0  0  0  0  0  0  0  0  0
    9.8299  -11.3357    0.0000 C   0  0  0  0  0  0  0  0  0  0  0  0
   16.6898  -11.3357    0.0000 C   0  0  0  0  0  0  0  0  0  0  0  0
    9.0769  -10.9174    0.0000 C   0  0  0  0  0  0  0  0  0  0  0  0
   17.4009  -10.9174    0.0000 C   0  0  0  0  0  0  0  0  0  0  0  0
    8.3658  -11.3357    0.0000 C   0  0  0  0  0  0  0  0  0  0  0  0
   18.2375  -10.9174    0.0000 C   0  0  0  0  0  0  0  0  0  0  0  0
    7.6547  -10.9174    0.0000 C   0  0  0  0  0  0  0  0  0  0  0  0
   18.9486  -11.3357    0.0000 C   0  0  0  0  0  0  0  0  0  0  0  0
    6.9018  -11.3357    0.0000 O   0  0  0  0  0  0  0  0  0  0  0  0
    7.6547  -10.0808    0.0000 O   0  0  0  0  0  0  0  0  0  0  0  0
   19.7015  -10.9174    0.0000 C   0  0  0  0  0  0  0  0  0  0  0  0
   20.5381  -10.9174    0.0000 C   0  0  0  0  0  0  0  0  0  0  0  0
   21.2492  -11.3357    0.0000 C   0  0  0  0  0  0  0  0  0  0  0  0
   21.9603  -10.9174    0.0000 C   0  0  0  0  0  0  0  0  0  0  0  0
    0.0000    0.0000    0.0000 H   0  0  0  0  0  0  0  0  0  0  0  0
    0.0000    0.0000    0.0000 H   0  0  0  0  0  0  0  0  0  0  0  0
    0.0000    0.0000    0.0000 H   0  0  0  0  0  0  0  0  0  0  0  0
    0.0000    0.0000    0.0000 H   0  0  0  0  0  0  0  0  0  0  0  0
    0.0000    0.0000    0.0000 H   0  0  0  0  0  0  0  0  0  0  0  0
    0.0000    0.0000    0.0000 H   0  0  0  0  0  0  0  0  0  0  0  0
    0.0000    0.0000    0.0000 H   0  0  0  0  0  0  0  0  0  0  0  0
    0.0000    0.0000    0.0000 H   0  0  0  0  0  0  0  0  0  0  0  0
    0.0000    0.0000    0.0000 H   0  0  0  0  0  0  0  0  0  0  0  0
    0.0000    0.0000    0.0000 H   0  0  0  0  0  0  0  0  0  0  0  0
    0.0000    0.0000    0.0000 H   0  0  0  0  0  0  0  0  0  0  0  0
    0.0000    0.0000    0.0000 H   0  0  0  0  0  0  0  0  0  0  0  0
    0.0000    0.0000    0.0000 H   0  0  0  0  0  0  0  0  0  0  0  0
    0.0000    0.0000    0.0000 H   0  0  0  0  0  0  0  0  0  0  0  0
    0.0000    0.0000    0.0000 H   0  0  0  0  0  0  0  0  0  0  0  0
    0.0000    0.0000    0.0000 H   0  0  0  0  0  0  0  0  0  0  0  0
    0.0000    0.0000    0.0000 H   0  0  0  0  0  0  0  0  0  0  0  0
    0.0000    0.0000    0.0000 H   0  0  0  0  0  0  0  0  0  0  0  0
    0.0000    0.0000    0.0000 H   0  0  0  0  0  0  0  0  0  0  0  0
    0.0000    0.0000    0.0000 H   0  0  0  0  0  0  0  0  0  0  0  0
    0.0000    0.0000    0.0000 H   0  0  0  0  0  0  0  0  0  0  0  0
    0.0000    0.0000    0.0000 H   0  0  0  0  0  0  0  0  0  0  0  0
    0.0000    0.0000    0.0000 H   0  0  0  0  0  0  0  0  0  0  0  0
    0.0000    0.0000    0.0000 H   0  0  0  0  0  0  0  0  0  0  0  0
    0.0000    0.0000    0.0000 H   0  0  0  0  0  0  0  0  0  0  0  0
    0.0000    0.0000    0.0000 H   0  0  0  0  0  0  0  0  0  0  0  0
    0.0000    0.0000    0.0000 H   0  0  0  0  0  0  0  0  0  0  0  0
    0.0000    0.0000    0.0000 H   0  0  0  0  0  0  0  0  0  0  0  0
    0.0000    0.0000    0.0000 H   0  0  0  0  0  0  0  0  0  0  0  0
    0.0000    0.0000    0.0000 H   0  0  0  0  0  0  0  0  0  0  0  0
  1  2  2  0
  1  3  1  0
  2  4  1  0
  3  5  1  0
  4  6  1  0
  5  7  2  0
  6  8  2  0
  7  9  1  0
  8 10  1  0
  9 11  1  0
 10 12  1  0
 11 13  1  0
 12 14  2  0
 13 15  1  0
 14 16  1  0
 15 17  1  0
 15 18  2  0
 16 19  1  0
 19 20  2  0
 20 21  1  0
 21 22  1  0
  1 23  1  0
  2 24  1  0
  3 25  1  0
  3 26  1  0
  4 27  1  0
  4 28  1  0
  5 29  1  0
  6 30  1  0
  7 31  1  0
  8 32  1  0
  9 33  1  0
  9 34  1  0
 10 35  1  0
 10 36  1  0
 11 37  1  0
 11 38  1  0
 12 39  1  0
 13 40  1  0
 13 41  1  0
 14 42  1  0
 16 43  1  0
 16 44  1  0
 17 45  1  0
 19 46  1  0
 20 47  1  0
 21 48  1  0
 21 49  1  0
 22 50  1  0
 22 51  1  0
 22 52  1  0
M  END
>  <ALOGPS_LOGP>  (1) 
6.53

>  <ALOGPS_LOGS>  (1) 
-6.02

>  <ALOGPS_SOLUBILITY>  (1) 
2.89e-04 g/l

>  <DATABASE_ID>  (1) 
DB00159

>  <DATABASE_NAME>  (1) 
drugbank

>  <DRUGBANK_ID>  (1) 
DB00159

>  <DRUG_GROUPS>  (1) 
approved; nutraceutical

>  <EXACT_MASS>  (1) 
302.224580204

>  <FORMULA>  (1) 
C20H30O2

>  <GENERIC_NAME>  (1) 
Icosapent

>  <INCHI_IDENTIFIER>  (1) 
InChI=1S/C20H30O2/c1-2-3-4-5-6-7-8-9-10-11-12-13-14-15-16-17-18-19-20(21)22/h3-4,6-7,9-10,12-13,15-16H,2,5,8,11,14,17-19H2,1H3,(H,21,22)/b4-3-,7-6-,10-9-,13-12-,16-15-

>  <INCHI_KEY>  (1) 
JAZBEHYOTPTENJ-JLNKQSITSA-N

>  <JCHEM_ACCEPTOR_COUNT>  (1) 
2

>  <JCHEM_AVERAGE_POLARIZABILITY>  (1) 
35.92931841565799

>  <JCHEM_BIOAVAILABILITY>  (1) 
0

>  <JCHEM_DONOR_COUNT>  (1) 
1

>  <JCHEM_FORMAL_CHARGE>  (1) 
0

>  <JCHEM_GHOSE_FILTER>  (1) 
0

>  <JCHEM_IUPAC>  (1) 
(5Z,8Z,11Z,14Z,17Z)-icosa-5,8,11,14,17-pentaenoic acid

>  <JCHEM_LOGP>  (1) 
6.225249154333334

>  <JCHEM_MDDR_LIKE_RULE>  (1) 
0

>  <JCHEM_NUMBER_OF_RINGS>  (1) 
0

>  <JCHEM_PHYSIOLOGICAL_CHARGE>  (1) 
-1

>  <JCHEM_PKA_STRONGEST_ACIDIC>  (1) 
4.819771840522258

>  <JCHEM_POLAR_SURFACE_AREA>  (1) 
37.3

>  <JCHEM_REFRACTIVITY>  (1) 
101.07059999999998

>  <JCHEM_ROTATABLE_BOND_COUNT>  (1) 
13

>  <JCHEM_RULE_OF_FIVE>  (1) 
0

>  <JCHEM_TRADITIONAL_IUPAC>  (1) 
eicosapentaenoic acid

>  <JCHEM_VEBER_RULE>  (1) 
0

>  <MOLECULAR_WEIGHT>  (1) 
302.451

>  <PRODUCTS>  (1) 
Animi-3; Animi-3 with Vitamin D; CitraNatal Assure; Folcaps Care One; Folcaps Omega-3; Gesticare DHA; Herbalifeline; Natelle One; Prenate Essential; Se-Tan DHA; UltimateCare ONE NF; Virt-PN Plus; Vp-CH-pnv

>  <SALTS>  (1) 
Icosapent sodium

>  <SECONDARY_ACCESSION_NUMBERS>  (1) 
NUTR00024

>  <SMILES>  (1) 
CC\C=C/C\C=C/C\C=C/C\C=C/C\C=C/CCCC(O)=O

>  <SYNONYMS>  (1) 
all-cis-5,8,11,14,17-eicosapentaenoic acid; all-cis-5,8,11,14,17-icosapentaenoic acid; all-cis-icosa-5,8,11,14,17-pentaenoic acid; cis-5,8,11,14,17-EPA; Eicosapentaenoic acid; EPA; Timnodonic acid

$$$$
