422
     RDKit          2D

 36 37  0  0  1  0  0  0  0  0999 V2000
    3.0791   -1.0313    0.0000 O   0  0  0  0  0  0  0  0  0  0  0  0
    4.5080   -1.0313    0.0000 O   0  0  0  0  0  0  0  0  0  0  0  0
    5.2224    0.2063    0.0000 N   0  0  0  0  0  0  0  0  0  0  0  0
    4.5080    0.6188    0.0000 C   0  0  0  0  0  0  0  0  0  0  0  0
    4.5080    1.4438    0.0000 C   0  0  0  0  0  0  0  0  0  0  0  0
    3.7935    0.2063    0.0000 C   0  0  0  0  0  0  0  0  0  0  0  0
    5.2224    1.8563    0.0000 C   0  0  0  0  0  0  0  0  0  0  0  0
    5.9370    1.4438    0.0000 C   0  0  0  0  0  0  0  0  0  0  0  0
    5.9370    0.6188    0.0000 C   0  0  0  0  0  0  0  0  0  0  0  0
    3.0791    0.6188    0.0000 C   0  0  0  0  0  0  0  0  0  0  0  0
    3.7935   -0.6188    0.0000 C   0  0  0  0  0  0  0  0  0  0  0  0
    2.3645    0.2063    0.0000 C   0  0  0  0  0  0  0  0  0  0  0  0
    3.0791    1.4438    0.0000 C   0  0  0  0  0  0  0  0  0  0  0  0
    1.6500    0.6188    0.0000 C   0  0  0  0  0  0  0  0  0  0  0  0
    2.3645    1.8563    0.0000 C   0  0  0  0  0  0  0  0  0  0  0  0
    1.6500    1.4438    0.0000 C   0  0  0  0  0  0  0  0  0  0  0  0
    3.0791   -1.8563    0.0000 C   0  0  0  0  0  0  0  0  0  0  0  0
    0.0000    0.0000    0.0000 H   0  0  0  0  0  0  0  0  0  0  0  0
    0.0000    0.0000    0.0000 H   0  0  0  0  0  0  0  0  0  0  0  0
    0.0000    0.0000    0.0000 H   0  0  0  0  0  0  0  0  0  0  0  0
    0.0000    0.0000    0.0000 H   0  0  0  0  0  0  0  0  0  0  0  0
    0.0000    0.0000    0.0000 H   0  0  0  0  0  0  0  0  0  0  0  0
    0.0000    0.0000    0.0000 H   0  0  0  0  0  0  0  0  0  0  0  0
    0.0000    0.0000    0.0000 H   0  0  0  0  0  0  0  0  0  0  0  0
    0.0000    0.0000    0.0000 H   0  0  0  0  0  0  0  0  0  0  0  0
    0.0000    0.0000    0.0000 H   0  0  0  0  0  0  0  0  0  0  0  0
    0.0000    0.0000    0.0000 H   0  0  0  0  0  0  0  0  0  0  0  0
    0.0000    0.0000    0.0000 H   0  0  0  0  0  0  0  0  0  0  0  0
    0.0000    0.0000    0.0000 H   0  0  0  0  0  0  0  0  0  0  0  0
    0.0000    0.0000    0.0000 H   0  0  0  0  0  0  0  0  0  0  0  0
    0.0000    0.0000    0.0000 H   0  0  0  0  0  0  0  0  0  0  0  0
    0.0000    0.0000    0.0000 H   0  0  0  0  0  0  0  0  0  0  0  0
    0.0000    0.0000    0.0000 H   0  0  0  0  0  0  0  0  0  0  0  0
    0.0000    0.0000    0.0000 H   0  0  0  0  0  0  0  0  0  0  0  0
    0.0000    0.0000    0.0000 H   0  0  0  0  0  0  0  0  0  0  0  0
    0.0000    0.0000    0.0000 H   0  0  0  0  0  0  0  0  0  0  0  0
  1 11  1  0
  1 17  1  0
  2 11  2  0
  3  4  1  0
  3  9  1  0
  4  5  1  0
  4  6  1  0
  5  7  1  0
  6 10  1  0
  6 11  1  0
  7  8  1  0
  8  9  1  0
 10 12  2  0
 10 13  1  0
 12 14  1  0
 13 15  2  0
 14 16  2  0
 15 16  1  0
  3 18  1  0
  4 19  1  0
  5 20  1  0
  5 21  1  0
  6 22  1  0
  7 23  1  0
  7 24  1  0
  8 25  1  0
  8 26  1  0
  9 27  1  0
  9 28  1  0
 12 29  1  0
 13 30  1  0
 14 31  1  0
 15 32  1  0
 16 33  1  0
 17 34  1  0
 17 35  1  0
 17 36  1  0
M  END
>  <ALOGPS_LOGP>  (1) 
1.47

>  <ALOGPS_LOGS>  (1) 
-3.11

>  <ALOGPS_SOLUBILITY>  (1) 
1.82e-01 g/l

>  <DATABASE_ID>  (1) 
DB00422

>  <DATABASE_NAME>  (1) 
drugbank

>  <DRUGBANK_ID>  (1) 
DB00422

>  <DRUG_GROUPS>  (1) 
approved; investigational

>  <EXACT_MASS>  (1) 
233.141578857

>  <FORMULA>  (1) 
C14H19NO2

>  <GENERIC_NAME>  (1) 
Methylphenidate

>  <INCHI_IDENTIFIER>  (1) 
InChI=1S/C14H19NO2/c1-17-14(16)13(11-7-3-2-4-8-11)12-9-5-6-10-15-12/h2-4,7-8,12-13,15H,5-6,9-10H2,1H3

>  <INCHI_KEY>  (1) 
DUGOZIWVEXMGBE-UHFFFAOYSA-N

>  <INTERNATIONAL_BRANDS>  (1) 
Equasym XL; Metadate; Quillivant

>  <JCHEM_ACCEPTOR_COUNT>  (1) 
2

>  <JCHEM_AVERAGE_POLARIZABILITY>  (1) 
26.21029904690421

>  <JCHEM_BIOAVAILABILITY>  (1) 
1

>  <JCHEM_DONOR_COUNT>  (1) 
1

>  <JCHEM_FORMAL_CHARGE>  (1) 
0

>  <JCHEM_GHOSE_FILTER>  (1) 
1

>  <JCHEM_IUPAC>  (1) 
methyl 2-phenyl-2-(piperidin-2-yl)acetate

>  <JCHEM_LOGP>  (1) 
2.254935081666666

>  <JCHEM_MDDR_LIKE_RULE>  (1) 
0

>  <JCHEM_NUMBER_OF_RINGS>  (1) 
2

>  <JCHEM_PHYSIOLOGICAL_CHARGE>  (1) 
1

>  <JCHEM_PKA_STRONGEST_BASIC>  (1) 
9.088826845099911

>  <JCHEM_POLAR_SURFACE_AREA>  (1) 
38.33

>  <JCHEM_REFRACTIVITY>  (1) 
66.72820000000002

>  <JCHEM_ROTATABLE_BOND_COUNT>  (1) 
4

>  <JCHEM_RULE_OF_FIVE>  (1) 
1

>  <JCHEM_TRADITIONAL_IUPAC>  (1) 
methylphenidate

>  <JCHEM_VEBER_RULE>  (1) 
1

>  <MOLECULAR_WEIGHT>  (1) 
233.3062

>  <PRODUCTS>  (1) 
Act Methylphenidate ER; Apo-methylphenidate; Apo-methylphenidate ER; Apo-methylphenidate SR; Aptensio XR; Biphentin; Concerta; Cotempla XR-ODT; Daytrana; Metadate CD; Metadate ER; Methylin; Methylphenidate; Methylphenidate HCl Oral Solution; Methylphenidate Hydrochloride; Methylphenidate Hydrochloride (CD); Methylphenidate Hydrochloride (LA); Methylphenidate Hydrochloride ER; Methylphenidate Hydrochloride Extended Release; Methylphenidate Hydrochloride Extended-Release; Methylphenidate Hydrochloride SR; Methylphenidate Tab 10mg; Methylphenidate Tab 20mg; Novo-methylphenidate; Ntp-methylphenidate ER-C; PHL-methylphenidate; PMS-methylphenidate; PMS-methylphenidate ER; QuilliChew ER; Quillivant XR; Ratio-methylphenidate; Ritalin; Ritalin 10mg; Ritalin 20mg; Ritalin LA; Ritalin-SR Tab 20mg; Sandoz Methylphenidate; Sandoz Methylphenidate SR; Teva-methylphenidate ER-C; methylphenidate hydrochloride CD

>  <SALTS>  (1) 
Methylphenidate hydrochloride

>  <SECONDARY_ACCESSION_NUMBERS>  (1) 
APRD00657

>  <SMILES>  (1) 
COC(=O)C(C1CCCCN1)C1=CC=CC=C1

>  <SYNONYMS>  (1) 
Methyl phenidylacetate; methyl phenyl(piperidin-2-yl)acetate; methyl α-phenyl-α-(2-piperidyl)acetate; methyl α-phenyl-α-2-piperidinylacetate; Methylphenidan; Methylphenidatum; Metilfenidato; MPH; α-phenyl-2-piperidineacetic acid methyl ester

$$$$
