687
     RDKit          2D

 56 59  0  0  1  0  0  0  0  0999 V2000
    4.1400    0.3071    0.0000 F   0  0  0  0  0  0  0  0  0  0  0  0
    6.6263    1.5366    0.0000 O   0  0  0  0  0  0  0  0  0  0  0  0
    3.9559    0.9126    0.0000 O   0  0  0  0  0  0  0  0  0  0  0  0
    7.4634    2.0559    0.0000 O   0  0  0  0  0  0  0  0  0  0  0  0
    8.9696    1.3822    0.0000 O   0  0  0  0  0  0  0  0  0  0  0  0
    1.6500   -2.0181    0.0000 O   0  0  0  0  0  0  0  0  0  0  0  0
    6.0993    0.5001    0.0000 C   0  0  0  0  0  0  0  0  0  0  0  0
    6.0993   -0.3249    0.0000 C   0  0  0  0  0  0  0  0  0  0  0  0
    5.3849   -0.7374    0.0000 C   0  0  0  0  0  0  0  0  0  0  0  0
    4.6703   -0.3249    0.0000 C   0  0  0  0  0  0  0  0  0  0  0  0
    6.8799    0.7515    0.0000 C   0  0  0  0  0  0  0  0  0  0  0  0
    5.3849    0.9126    0.0000 C   0  0  0  0  0  0  0  0  0  0  0  0
    3.9196   -0.7431    0.0000 C   0  0  0  0  0  0  0  0  0  0  0  0
    4.6703    0.5001    0.0000 C   0  0  0  0  0  0  0  0  0  0  0  0
    6.8799   -0.5763    0.0000 C   0  0  0  0  0  0  0  0  0  0  0  0
    7.3614    0.0876    0.0000 C   0  0  0  0  0  0  0  0  0  0  0  0
    5.3981   -1.5966    0.0000 C   0  0  0  0  0  0  0  0  0  0  0  0
    6.0993    1.3251    0.0000 C   0  0  0  0  0  0  0  0  0  0  0  0
    3.9130   -1.6024    0.0000 C   0  0  0  0  0  0  0  0  0  0  0  0
    4.6572   -2.0321    0.0000 C   0  0  0  0  0  0  0  0  0  0  0  0
    3.1550   -0.2777    0.0000 C   0  0  0  0  0  0  0  0  0  0  0  0
    3.6435    0.0343    0.0000 C   0  0  0  0  0  0  0  0  0  0  0  0
    7.5482    1.2353    0.0000 C   0  0  0  0  0  0  0  0  0  0  0  0
    2.3730   -0.7132    0.0000 C   0  0  0  0  0  0  0  0  0  0  0  0
    3.1413   -2.0559    0.0000 C   0  0  0  0  0  0  0  0  0  0  0  0
    2.3660   -1.6083    0.0000 C   0  0  0  0  0  0  0  0  0  0  0  0
    8.3013    0.8984    0.0000 C   0  0  0  0  0  0  0  0  0  0  0  0
    0.0000    0.0000    0.0000 H   0  0  0  0  0  0  0  0  0  0  0  0
    0.0000    0.0000    0.0000 H   0  0  0  0  0  0  0  0  0  0  0  0
    0.0000    0.0000    0.0000 H   0  0  0  0  0  0  0  0  0  0  0  0
    0.0000    0.0000    0.0000 H   0  0  0  0  0  0  0  0  0  0  0  0
    0.0000    0.0000    0.0000 H   0  0  0  0  0  0  0  0  0  0  0  0
    0.0000    0.0000    0.0000 H   0  0  0  0  0  0  0  0  0  0  0  0
    0.0000    0.0000    0.0000 H   0  0  0  0  0  0  0  0  0  0  0  0
    0.0000    0.0000    0.0000 H   0  0  0  0  0  0  0  0  0  0  0  0
    0.0000    0.0000    0.0000 H   0  0  0  0  0  0  0  0  0  0  0  0
    0.0000    0.0000    0.0000 H   0  0  0  0  0  0  0  0  0  0  0  0
    0.0000    0.0000    0.0000 H   0  0  0  0  0  0  0  0  0  0  0  0
    0.0000    0.0000    0.0000 H   0  0  0  0  0  0  0  0  0  0  0  0
    0.0000    0.0000    0.0000 H   0  0  0  0  0  0  0  0  0  0  0  0
    0.0000    0.0000    0.0000 H   0  0  0  0  0  0  0  0  0  0  0  0
    0.0000    0.0000    0.0000 H   0  0  0  0  0  0  0  0  0  0  0  0
    0.0000    0.0000    0.0000 H   0  0  0  0  0  0  0  0  0  0  0  0
    0.0000    0.0000    0.0000 H   0  0  0  0  0  0  0  0  0  0  0  0
    0.0000    0.0000    0.0000 H   0  0  0  0  0  0  0  0  0  0  0  0
    0.0000    0.0000    0.0000 H   0  0  0  0  0  0  0  0  0  0  0  0
    0.0000    0.0000    0.0000 H   0  0  0  0  0  0  0  0  0  0  0  0
    0.0000    0.0000    0.0000 H   0  0  0  0  0  0  0  0  0  0  0  0
    0.0000    0.0000    0.0000 H   0  0  0  0  0  0  0  0  0  0  0  0
    0.0000    0.0000    0.0000 H   0  0  0  0  0  0  0  0  0  0  0  0
    0.0000    0.0000    0.0000 H   0  0  0  0  0  0  0  0  0  0  0  0
    0.0000    0.0000    0.0000 H   0  0  0  0  0  0  0  0  0  0  0  0
    0.0000    0.0000    0.0000 H   0  0  0  0  0  0  0  0  0  0  0  0
    0.0000    0.0000    0.0000 H   0  0  0  0  0  0  0  0  0  0  0  0
    0.0000    0.0000    0.0000 H   0  0  0  0  0  0  0  0  0  0  0  0
    0.0000    0.0000    0.0000 H   0  0  0  0  0  0  0  0  0  0  0  0
 10  1  1  6
 11  2  1  6
 14  3  1  1
  4 23  2  0
  5 27  1  0
  6 26  2  0
  7  8  1  0
  7 11  1  0
  7 12  1  0
  7 18  1  1
  8  9  1  0
  8 15  1  0
  9 10  1  0
  9 17  1  0
 10 13  1  0
 10 14  1  0
 11 16  1  0
 11 23  1  0
 12 14  1  0
 13 19  1  0
 13 21  1  0
 13 22  1  1
 15 16  1  0
 17 20  1  0
 19 20  1  0
 19 25  2  0
 21 24  1  0
 23 27  1  0
 24 26  1  0
 25 26  1  0
  2 28  1  0
  3 29  1  0
  5 30  1  0
  8 31  1  6
  9 32  1  1
 12 33  1  0
 12 34  1  0
 14 35  1  0
 15 36  1  0
 15 37  1  0
 16 38  1  0
 16 39  1  0
 17 40  1  0
 17 41  1  0
 18 42  1  0
 18 43  1  0
 18 44  1  0
 20 45  1  0
 20 46  1  0
 21 47  1  0
 21 48  1  0
 22 49  1  0
 22 50  1  0
 22 51  1  0
 24 52  1  0
 24 53  1  0
 25 54  1  0
 27 55  1  0
 27 56  1  0
M  END
>  <ALOGPS_LOGP>  (1) 
1.35

>  <ALOGPS_LOGS>  (1) 
-3.23

>  <ALOGPS_SOLUBILITY>  (1) 
2.24e-01 g/l

>  <DATABASE_ID>  (1) 
DB00687

>  <DATABASE_NAME>  (1) 
drugbank

>  <DRUGBANK_ID>  (1) 
DB00687

>  <DRUG_GROUPS>  (1) 
approved

>  <EXACT_MASS>  (1) 
380.199902243

>  <FORMULA>  (1) 
C21H29FO5

>  <GENERIC_NAME>  (1) 
Fludrocortisone

>  <INCHI_IDENTIFIER>  (1) 
InChI=1S/C21H29FO5/c1-18-7-5-13(24)9-12(18)3-4-15-14-6-8-20(27,17(26)11-23)19(14,2)10-16(25)21(15,18)22/h9,14-16,23,25,27H,3-8,10-11H2,1-2H3/t14-,15-,16-,18-,19-,20-,21-/m0/s1

>  <INCHI_KEY>  (1) 
AAXVEMMRQDVLJB-BULBTXNYSA-N

>  <INTERNATIONAL_BRANDS>  (1) 
Adixone; Astonin; Cortineff; Florinef Acetaat; Florinefe; Fludrocortison; Lonikan

>  <JCHEM_ACCEPTOR_COUNT>  (1) 
5

>  <JCHEM_AVERAGE_POLARIZABILITY>  (1) 
39.59653661166462

>  <JCHEM_BIOAVAILABILITY>  (1) 
1

>  <JCHEM_DONOR_COUNT>  (1) 
3

>  <JCHEM_FORMAL_CHARGE>  (1) 
0

>  <JCHEM_GHOSE_FILTER>  (1) 
1

>  <JCHEM_IUPAC>  (1) 
(1R,2S,10S,11S,14R,15S,17S)-1-fluoro-14,17-dihydroxy-14-(2-hydroxyacetyl)-2,15-dimethyltetracyclo[8.7.0.0²,⁷.0¹¹,¹⁵]heptadec-6-en-5-one

>  <JCHEM_LOGP>  (1) 
1.3187733636666672

>  <JCHEM_MDDR_LIKE_RULE>  (1) 
0

>  <JCHEM_NUMBER_OF_RINGS>  (1) 
4

>  <JCHEM_PHYSIOLOGICAL_CHARGE>  (1) 
0

>  <JCHEM_PKA>  (1) 
13.498576774970367

>  <JCHEM_PKA_STRONGEST_ACIDIC>  (1) 
12.550706553926332

>  <JCHEM_PKA_STRONGEST_BASIC>  (1) 
-3.329983291211101

>  <JCHEM_POLAR_SURFACE_AREA>  (1) 
94.83000000000001

>  <JCHEM_REFRACTIVITY>  (1) 
96.92799999999998

>  <JCHEM_ROTATABLE_BOND_COUNT>  (1) 
2

>  <JCHEM_RULE_OF_FIVE>  (1) 
1

>  <JCHEM_TRADITIONAL_IUPAC>  (1) 
fludrocortisone

>  <JCHEM_VEBER_RULE>  (1) 
0

>  <MOLECULAR_WEIGHT>  (1) 
380.4504

>  <PRODUCTS>  (1) 
Florinef; Florinef Acetate 0.1mg; Fludrocortisone Acetate

>  <SALTS>  (1) 
Fludrocortisone Acetate

>  <SECONDARY_ACCESSION_NUMBERS>  (1) 
APRD00756; DB02478

>  <SMILES>  (1) 
[H][C@@]12CC[C@](O)(C(=O)CO)[C@@]1(C)C[C@H](O)[C@@]1(F)[C@@]2([H])CCC2=CC(=O)CC[C@]12C

>  <SYNONYMS>  (1) 
Fludrocortison; Fludrocortisona; Fludrocortisone; Fludrocortisonum; Fluohydrocortisone

$$$$
