
     RDKit          2D

 59 63  0  0  0  0  0  0  0  0999 V2000
   -2.0660    1.2111    0.0000 N   0  0  0  0  0  0  0  0  0  0  0  0
    0.2931   -1.2692    0.0000 C   0  0  0  0  0  0  0  0  0  0  0  0
    1.0003   -0.8477    0.0000 C   0  0  0  0  0  0  0  0  0  0  0  0
   -1.5041    0.7653    0.0000 C   0  0  0  0  0  0  0  0  0  0  0  0
   -1.9256    0.3874    0.0000 C   0  0  0  0  0  0  0  0  0  0  0  0
   -0.4237   -0.8622    0.0000 O   0  0  0  0  0  0  0  0  0  0  0  0
   -0.4189   -0.0436    0.0000 C   0  0  0  0  0  0  0  0  0  0  0  0
   -0.9422    0.3874    0.0000 C   0  0  0  0  0  0  0  0  0  0  0  0
   -0.5642    0.7848    0.0000 C   0  0  0  0  0  0  0  0  0  0  0  0
    0.2978   -2.0927    0.0000 O   0  0  0  0  0  0  0  0  0  0  0  0
   -2.4535   -0.3294    0.0000 C   0  0  0  0  0  0  0  0  0  0  0  0
   -1.8238    0.0485    0.0000 C   0  0  0  0  0  0  0  0  0  0  0  0
    1.7173   -1.2547    0.0000 C   0  0  0  0  0  0  0  0  0  0  0  0
    1.4072   -0.1307    0.0000 C   0  0  0  0  0  0  0  0  0  0  0  0
    0.5837   -0.1307    0.0000 O   0  0  0  0  0  0  0  0  0  0  0  0
   -1.8141    1.9960    0.0000 C   0  0  0  0  0  0  0  0  0  0  0  0
   -2.8894    1.2111    0.0000 C   0  0  0  0  0  0  0  0  0  0  0  0
    1.7221   -2.0781    0.0000 C   0  0  0  0  0  0  0  0  0  0  0  0
    2.4197   -0.8332    0.0000 C   0  0  0  0  0  0  0  0  0  0  0  0
    2.2356   -0.1210    0.0000 C   0  0  0  0  0  0  0  0  0  0  0  0
    0.9809    0.5764    0.0000 C   0  0  0  0  0  0  0  0  0  0  0  0
   -3.1464    1.9960    0.0000 C   0  0  0  0  0  0  0  0  0  0  0  0
   -2.4778    2.4802    0.0000 C   0  0  0  0  0  0  0  0  0  0  0  0
    1.3832    1.2983    0.0000 C   0  0  0  0  0  0  0  0  0  0  0  0
    2.4391   -2.4802    0.0000 C   0  0  0  0  0  0  0  0  0  0  0  0
    3.1367   -1.2353    0.0000 C   0  0  0  0  0  0  0  0  0  0  0  0
    2.6377    0.6007    0.0000 C   0  0  0  0  0  0  0  0  0  0  0  0
    2.2162    1.3128    0.0000 C   0  0  0  0  0  0  0  0  0  0  0  0
    3.1464   -2.0636    0.0000 C   0  0  0  0  0  0  0  0  0  0  0  0
    0.0000    0.0000    0.0000 H   0  0  0  0  0  0  0  0  0  0  0  0
    0.0000    0.0000    0.0000 H   0  0  0  0  0  0  0  0  0  0  0  0
    0.0000    0.0000    0.0000 H   0  0  0  0  0  0  0  0  0  0  0  0
    0.0000    0.0000    0.0000 H   0  0  0  0  0  0  0  0  0  0  0  0
    0.0000    0.0000    0.0000 H   0  0  0  0  0  0  0  0  0  0  0  0
    0.0000    0.0000    0.0000 H   0  0  0  0  0  0  0  0  0  0  0  0
    0.0000    0.0000    0.0000 H   0  0  0  0  0  0  0  0  0  0  0  0
    0.0000    0.0000    0.0000 H   0  0  0  0  0  0  0  0  0  0  0  0
    0.0000    0.0000    0.0000 H   0  0  0  0  0  0  0  0  0  0  0  0
    0.0000    0.0000    0.0000 H   0  0  0  0  0  0  0  0  0  0  0  0
    0.0000    0.0000    0.0000 H   0  0  0  0  0  0  0  0  0  0  0  0
    0.0000    0.0000    0.0000 H   0  0  0  0  0  0  0  0  0  0  0  0
    0.0000    0.0000    0.0000 H   0  0  0  0  0  0  0  0  0  0  0  0
    0.0000    0.0000    0.0000 H   0  0  0  0  0  0  0  0  0  0  0  0
    0.0000    0.0000    0.0000 H   0  0  0  0  0  0  0  0  0  0  0  0
    0.0000    0.0000    0.0000 H   0  0  0  0  0  0  0  0  0  0  0  0
    0.0000    0.0000    0.0000 H   0  0  0  0  0  0  0  0  0  0  0  0
    0.0000    0.0000    0.0000 H   0  0  0  0  0  0  0  0  0  0  0  0
    0.0000    0.0000    0.0000 H   0  0  0  0  0  0  0  0  0  0  0  0
    0.0000    0.0000    0.0000 H   0  0  0  0  0  0  0  0  0  0  0  0
    0.0000    0.0000    0.0000 H   0  0  0  0  0  0  0  0  0  0  0  0
    0.0000    0.0000    0.0000 H   0  0  0  0  0  0  0  0  0  0  0  0
    0.0000    0.0000    0.0000 H   0  0  0  0  0  0  0  0  0  0  0  0
    0.0000    0.0000    0.0000 H   0  0  0  0  0  0  0  0  0  0  0  0
    0.0000    0.0000    0.0000 H   0  0  0  0  0  0  0  0  0  0  0  0
    0.0000    0.0000    0.0000 H   0  0  0  0  0  0  0  0  0  0  0  0
    0.0000    0.0000    0.0000 H   0  0  0  0  0  0  0  0  0  0  0  0
    0.0000    0.0000    0.0000 H   0  0  0  0  0  0  0  0  0  0  0  0
    0.0000    0.0000    0.0000 H   0  0  0  0  0  0  0  0  0  0  0  0
    0.0000    0.0000    0.0000 H   0  0  0  0  0  0  0  0  0  0  0  0
  2  6  1  0
  3  2  1  0
  4  1  1  0
  5  1  1  0
  7  6  1  6
  7  9  1  0
  8  5  1  0
  9  4  1  0
 10  2  2  0
 11  5  1  0
 12  4  1  0
 13  3  1  0
 14  3  1  0
 15  3  1  0
 16  1  1  0
 17  1  1  0
 18 13  2  0
 19 13  1  0
 20 14  2  0
 21 14  1  0
 22 17  1  0
 23 16  1  0
 24 21  2  0
 25 18  1  0
 26 19  2  0
 27 20  1  0
 28 24  1  0
 29 25  2  0
 12 11  1  0
  8  7  1  0
 22 23  1  0
 28 27  2  0
 26 29  1  0
  4 30  1  6
  5 31  1  1
  7 32  1  0
  8 33  1  0
  8 34  1  0
  9 35  1  0
  9 36  1  0
 11 37  1  0
 11 38  1  0
 12 39  1  0
 12 40  1  0
 15 41  1  0
 16 42  1  0
 16 43  1  0
 17 44  1  0
 17 45  1  0
 18 46  1  0
 19 47  1  0
 20 48  1  0
 21 49  1  0
 22 50  1  0
 22 51  1  0
 23 52  1  0
 23 53  1  0
 24 54  1  0
 25 55  1  0
 26 56  1  0
 27 57  1  0
 28 58  1  0
 29 59  1  0
M  CHG  1   1   1
M  END
>  <ALOGPS_LOGP>  (1) 
2.86

>  <ALOGPS_LOGS>  (1) 
-6.81

>  <ALOGPS_SOLUBILITY>  (1) 
6.68e-05 g/l

>  <DATABASE_ID>  (1) 
DB00209

>  <DATABASE_NAME>  (1) 
drugbank

>  <DRUGBANK_ID>  (1) 
DB00209

>  <DRUG_GROUPS>  (1) 
approved

>  <EXACT_MASS>  (1) 
392.22202025

>  <FORMULA>  (1) 
C25H30NO3

>  <GENERIC_NAME>  (1) 
Trospium

>  <INCHI_IDENTIFIER>  (1) 
InChI=1S/C25H30NO3/c27-24(25(28,19-9-3-1-4-10-19)20-11-5-2-6-12-20)29-23-17-21-13-14-22(18-23)26(21)15-7-8-16-26/h1-6,9-12,21-23,28H,7-8,13-18H2/q+1/t21-,22+,23+

>  <INCHI_KEY>  (1) 
OYYDSUSKLWTMMQ-JKHIJQBDSA-N

>  <INTERNATIONAL_BRANDS>  (1) 
Flotros; Regurin; Spasmex; Spasmolyt; Spasmoplex; Tropez OD

>  <JCHEM_ACCEPTOR_COUNT>  (1) 
2

>  <JCHEM_ATOM_COUNT>  (1) 
59

>  <JCHEM_AVERAGE_POLARIZABILITY>  (1) 
43.248933849648296

>  <JCHEM_BIOAVAILABILITY>  (1) 
1

>  <JCHEM_DONOR_COUNT>  (1) 
1

>  <JCHEM_FORMAL_CHARGE>  (1) 
1

>  <JCHEM_GHOSE_FILTER>  (1) 
0

>  <JCHEM_IUPAC>  (1) 
(1S,3R,5R)-3-[(2-hydroxy-2,2-diphenylacetyl)oxy]-8λ⁵-azaspiro[bicyclo[3.2.1]octane-8,1'-pyrrolidin]-8-ylium

>  <JCHEM_LOGP>  (1) 
-0.5009602721384119

>  <JCHEM_MDDR_LIKE_RULE>  (1) 
0

>  <JCHEM_NUMBER_OF_RINGS>  (1) 
5

>  <JCHEM_PHYSIOLOGICAL_CHARGE>  (1) 
1

>  <JCHEM_PKA_STRONGEST_ACIDIC>  (1) 
11.049373508646706

>  <JCHEM_PKA_STRONGEST_BASIC>  (1) 
-4.52680402731793

>  <JCHEM_POLAR_SURFACE_AREA>  (1) 
46.53

>  <JCHEM_REFRACTIVITY>  (1) 
124.03830000000004

>  <JCHEM_ROTATABLE_BOND_COUNT>  (1) 
5

>  <JCHEM_RULE_OF_FIVE>  (1) 
1

>  <JCHEM_TRADITIONAL_IUPAC>  (1) 
trospium

>  <JCHEM_VEBER_RULE>  (1) 
0

>  <MOLECULAR_WEIGHT>  (1) 
392.518

>  <PRODUCTS>  (1) 
Sanctura XR; Trosec; Trospium Chloride; Trospium Chloride ER

>  <SALTS>  (1) 
Trospium chloride

>  <SECONDARY_ACCESSION_NUMBERS>  (1) 
APRD00393

>  <SMILES>  (1) 
[H][C@]12CC[C@]([H])(C[C@@H](C1)OC(=O)C(O)(C1=CC=CC=C1)C1=CC=CC=C1)[N+]21CCCC1

$$$$
