273
     RDKit          2D

 43 45  0  0  1  0  0  0  0  0999 V2000
    7.1521    0.8041    0.0000 S   0  0  0  0  0  0  0  0  0  0  0  0
    4.4667   -0.8226    0.0000 O   0  0  0  0  0  0  0  0  0  0  0  0
    5.0086    1.2167    0.0000 O   0  0  0  0  0  0  0  0  0  0  0  0
    5.6167   -0.1587    0.0000 O   0  0  0  0  0  0  0  0  0  0  0  0
    2.7990    0.1403    0.0000 O   0  0  0  0  0  0  0  0  0  0  0  0
    2.7990    1.4680    0.0000 O   0  0  0  0  0  0  0  0  0  0  0  0
    6.4376    0.3916    0.0000 O   0  0  0  0  0  0  0  0  0  0  0  0
    7.5646    0.0897    0.0000 O   0  0  0  0  0  0  0  0  0  0  0  0
    6.7396    1.5186    0.0000 O   0  0  0  0  0  0  0  0  0  0  0  0
    7.8666    1.2167    0.0000 N   0  0  0  0  0  0  0  0  0  0  0  0
    4.2941   -0.0209    0.0000 C   0  0  0  0  0  0  0  0  0  0  0  0
    3.5796    0.3916    0.0000 C   0  0  0  0  0  0  0  0  0  0  0  0
    5.0086    0.3916    0.0000 C   0  0  0  0  0  0  0  0  0  0  0  0
    3.5796    1.2167    0.0000 C   0  0  0  0  0  0  0  0  0  0  0  0
    4.2941    1.6292    0.0000 C   0  0  0  0  0  0  0  0  0  0  0  0
    5.2824   -0.9077    0.0000 C   0  0  0  0  0  0  0  0  0  0  0  0
    2.3175    0.8041    0.0000 C   0  0  0  0  0  0  0  0  0  0  0  0
    5.7231    0.8041    0.0000 C   0  0  0  0  0  0  0  0  0  0  0  0
    6.0361   -1.2432    0.0000 C   0  0  0  0  0  0  0  0  0  0  0  0
    5.1962   -1.7282    0.0000 C   0  0  0  0  0  0  0  0  0  0  0  0
    1.6500    0.3192    0.0000 C   0  0  0  0  0  0  0  0  0  0  0  0
    1.6500    1.2891    0.0000 C   0  0  0  0  0  0  0  0  0  0  0  0
    0.0000    0.0000    0.0000 H   0  0  0  0  0  0  0  0  0  0  0  0
    0.0000    0.0000    0.0000 H   0  0  0  0  0  0  0  0  0  0  0  0
    0.0000    0.0000    0.0000 H   0  0  0  0  0  0  0  0  0  0  0  0
    0.0000    0.0000    0.0000 H   0  0  0  0  0  0  0  0  0  0  0  0
    0.0000    0.0000    0.0000 H   0  0  0  0  0  0  0  0  0  0  0  0
    0.0000    0.0000    0.0000 H   0  0  0  0  0  0  0  0  0  0  0  0
    0.0000    0.0000    0.0000 H   0  0  0  0  0  0  0  0  0  0  0  0
    0.0000    0.0000    0.0000 H   0  0  0  0  0  0  0  0  0  0  0  0
    0.0000    0.0000    0.0000 H   0  0  0  0  0  0  0  0  0  0  0  0
    0.0000    0.0000    0.0000 H   0  0  0  0  0  0  0  0  0  0  0  0
    0.0000    0.0000    0.0000 H   0  0  0  0  0  0  0  0  0  0  0  0
    0.0000    0.0000    0.0000 H   0  0  0  0  0  0  0  0  0  0  0  0
    0.0000    0.0000    0.0000 H   0  0  0  0  0  0  0  0  0  0  0  0
    0.0000    0.0000    0.0000 H   0  0  0  0  0  0  0  0  0  0  0  0
    0.0000    0.0000    0.0000 H   0  0  0  0  0  0  0  0  0  0  0  0
    0.0000    0.0000    0.0000 H   0  0  0  0  0  0  0  0  0  0  0  0
    0.0000    0.0000    0.0000 H   0  0  0  0  0  0  0  0  0  0  0  0
    0.0000    0.0000    0.0000 H   0  0  0  0  0  0  0  0  0  0  0  0
    0.0000    0.0000    0.0000 H   0  0  0  0  0  0  0  0  0  0  0  0
    0.0000    0.0000    0.0000 H   0  0  0  0  0  0  0  0  0  0  0  0
    0.0000    0.0000    0.0000 H   0  0  0  0  0  0  0  0  0  0  0  0
  1  7  1  0
  1  8  2  0
  1  9  2  0
  1 10  1  0
  2 11  1  0
  2 16  1  0
  3 13  1  0
  3 15  1  0
  4 13  1  0
  4 16  1  0
  5 12  1  0
  5 17  1  0
  6 14  1  0
  6 17  1  0
  7 18  1  0
 11 12  1  0
 11 13  1  0
 12 14  1  0
 13 18  1  6
 14 15  1  0
 16 19  1  0
 16 20  1  0
 17 21  1  0
 17 22  1  0
 10 23  1  0
 10 24  1  0
 11 25  1  6
 12 26  1  1
 14 27  1  1
 15 28  1  0
 15 29  1  0
 18 30  1  0
 18 31  1  0
 19 32  1  0
 19 33  1  0
 19 34  1  0
 20 35  1  0
 20 36  1  0
 20 37  1  0
 21 38  1  0
 21 39  1  0
 21 40  1  0
 22 41  1  0
 22 42  1  0
 22 43  1  0
M  END
>  <ALOGPS_LOGP>  (1) 
1.29

>  <ALOGPS_LOGS>  (1) 
-1.70

>  <ALOGPS_SOLUBILITY>  (1) 
6.80e+00 g/l

>  <DATABASE_ID>  (1) 
DB00273

>  <DATABASE_NAME>  (1) 
drugbank

>  <DRUGBANK_ID>  (1) 
DB00273

>  <DRUG_GROUPS>  (1) 
approved

>  <EXACT_MASS>  (1) 
339.098787343

>  <FORMULA>  (1) 
C12H21NO8S

>  <GENERIC_NAME>  (1) 
Topiramate

>  <INCHI_IDENTIFIER>  (1) 
InChI=1S/C12H21NO8S/c1-10(2)18-7-5-16-12(6-17-22(13,14)15)9(8(7)19-10)20-11(3,4)21-12/h7-9H,5-6H2,1-4H3,(H2,13,14,15)/t7-,8-,9+,12+/m1/s1

>  <INCHI_KEY>  (1) 
KJADKKWYZYXHBB-XBWDGYHZSA-N

>  <JCHEM_ACCEPTOR_COUNT>  (1) 
8

>  <JCHEM_AVERAGE_POLARIZABILITY>  (1) 
32.42098488706586

>  <JCHEM_BIOAVAILABILITY>  (1) 
1

>  <JCHEM_DONOR_COUNT>  (1) 
1

>  <JCHEM_FORMAL_CHARGE>  (1) 
0

>  <JCHEM_GHOSE_FILTER>  (1) 
1

>  <JCHEM_IUPAC>  (1) 
[(1R,2S,6S,9R)-4,4,11,11-tetramethyl-3,5,7,10,12-pentaoxatricyclo[7.3.0.0²,⁶]dodecan-6-yl]methyl sulfamate

>  <JCHEM_LOGP>  (1) 
0.12695973433333307

>  <JCHEM_MDDR_LIKE_RULE>  (1) 
0

>  <JCHEM_NUMBER_OF_RINGS>  (1) 
3

>  <JCHEM_PHYSIOLOGICAL_CHARGE>  (1) 
0

>  <JCHEM_PKA_STRONGEST_ACIDIC>  (1) 
11.087057933607165

>  <JCHEM_PKA_STRONGEST_BASIC>  (1) 
-3.723039569510656

>  <JCHEM_POLAR_SURFACE_AREA>  (1) 
115.54

>  <JCHEM_REFRACTIVITY>  (1) 
72.30200000000002

>  <JCHEM_ROTATABLE_BOND_COUNT>  (1) 
3

>  <JCHEM_RULE_OF_FIVE>  (1) 
1

>  <JCHEM_TRADITIONAL_IUPAC>  (1) 
topiramate

>  <JCHEM_VEBER_RULE>  (1) 
0

>  <MOLECULAR_WEIGHT>  (1) 
339.362

>  <PRODUCTS>  (1) 
Abbott-topiramate; Accel-topiramate; Act Topiramate; Apo-topiramate; Auro-topiramate; Ava-topiramate; Dom-topiramate; Gd-topiramate; Ipg-topiramate; Jamp-topiramate; Mar-topiramate; Mint-topiramate; Mylan-topiramate; Nu-topiramate; PHL-topiramate; PMS-topiramate; Pro-topiramate; Q-topiramate; Qsymia; Qudexy XR; Ran-topiramate; Ratio-topiramate; Sandoz Topiramate; Sandoz Topiramate Tablets; Teva-topiramate; Topamax; Topamax 100mg; Topamax 200mg; Topamax 25mg; Topiramate; Topiramate Tablets; Topiramate Tablets USP; Trokendi XR; Van-topiramate; Zym-topiramate

>  <SALTS>  (1) 
Topiramate calcium; Topiramate potassium; Topiramate sodium

>  <SECONDARY_ACCESSION_NUMBERS>  (1) 
APRD00237

>  <SMILES>  (1) 
[H][C@@]12CO[C@@]3(COS(N)(=O)=O)OC(C)(C)O[C@@]3([H])[C@]1([H])OC(C)(C)O2

>  <SYNONYMS>  (1) 
Tipiramate; Topiramatum

$$$$
