868
     RDKit          2D

 95 95  0  0  0  0  0  0  0  0999 V2000
    8.0804    1.8563    0.0000 O   0  0  0  0  0  0  0  0  0  0  0  0
    8.7949    3.9188    0.0000 O   0  0  0  0  0  0  0  0  0  0  0  0
    6.6515    0.2063    0.0000 O   0  0  0  0  0  0  0  0  0  0  0  0
   10.2239    5.5689    0.0000 O   0  0  0  0  0  0  0  0  0  0  0  0
    5.9370   -1.8563    0.0000 O   0  0  0  0  0  0  0  0  0  0  0  0
    4.5080   -3.5063    0.0000 O   0  0  0  0  0  0  0  0  0  0  0  0
    3.7935   -5.5689    0.0000 O   0  0  0  0  0  0  0  0  0  0  0  0
   10.9383    7.6314    0.0000 O   0  0  0  0  0  0  0  0  0  0  0  0
   12.3674    9.2815    0.0000 O   0  0  0  0  0  0  0  0  0  0  0  0
    2.3645   -5.5689    0.0000 O   0  0  0  0  0  0  0  0  0  0  0  0
   13.0818   11.3440    0.0000 O   0  0  0  0  0  0  0  0  0  0  0  0
    3.0791   -9.2815    0.0000 N   0  0  0  0  0  0  0  0  0  0  0  0
    2.3645  -10.5190    0.0000 C   0  0  0  0  0  0  0  0  0  0  0  0
    2.3645   -9.6940    0.0000 C   0  0  0  0  0  0  0  0  0  0  0  0
    1.6500  -10.9315    0.0000 C   0  0  0  0  0  0  0  0  0  0  0  0
    3.0791   -8.4564    0.0000 C   0  0  0  0  0  0  0  0  0  0  0  0
    1.6500  -11.7565    0.0000 C   0  0  0  0  0  0  0  0  0  0  0  0
    3.7935   -8.0439    0.0000 C   0  0  0  0  0  0  0  0  0  0  0  0
    2.3645   -8.0439    0.0000 C   0  0  0  0  0  0  0  0  0  0  0  0
    3.0791   -6.8064    0.0000 C   0  0  0  0  0  0  0  0  0  0  0  0
    3.7935   -7.2189    0.0000 C   0  0  0  0  0  0  0  0  0  0  0  0
    2.3645   -7.2189    0.0000 C   0  0  0  0  0  0  0  0  0  0  0  0
    8.0804    2.6813    0.0000 C   0  0  0  0  0  0  0  0  0  0  0  0
    8.7949    3.0938    0.0000 C   0  0  0  0  0  0  0  0  0  0  0  0
    7.3659    1.4438    0.0000 C   0  0  0  0  0  0  0  0  0  0  0  0
    7.3659    0.6188    0.0000 C   0  0  0  0  0  0  0  0  0  0  0  0
    9.5094    4.3313    0.0000 C   0  0  0  0  0  0  0  0  0  0  0  0
    9.5094    5.1564    0.0000 C   0  0  0  0  0  0  0  0  0  0  0  0
    6.6515   -0.6188    0.0000 C   0  0  0  0  0  0  0  0  0  0  0  0
    5.9370   -1.0313    0.0000 C   0  0  0  0  0  0  0  0  0  0  0  0
   10.2239    6.3939    0.0000 C   0  0  0  0  0  0  0  0  0  0  0  0
    5.2224   -2.2688    0.0000 C   0  0  0  0  0  0  0  0  0  0  0  0
    5.2224   -3.0938    0.0000 C   0  0  0  0  0  0  0  0  0  0  0  0
   10.9383    6.8064    0.0000 C   0  0  0  0  0  0  0  0  0  0  0  0
    3.0791   -5.9814    0.0000 C   0  0  0  0  0  0  0  0  0  0  0  0
    4.5080   -4.3313    0.0000 C   0  0  0  0  0  0  0  0  0  0  0  0
    3.7935   -4.7439    0.0000 C   0  0  0  0  0  0  0  0  0  0  0  0
   11.6529    8.0439    0.0000 C   0  0  0  0  0  0  0  0  0  0  0  0
   11.6529    8.8689    0.0000 C   0  0  0  0  0  0  0  0  0  0  0  0
   12.3674   10.1065    0.0000 C   0  0  0  0  0  0  0  0  0  0  0  0
   13.0818   10.5190    0.0000 C   0  0  0  0  0  0  0  0  0  0  0  0
   13.7963   11.7565    0.0000 C   0  0  0  0  0  0  0  0  0  0  0  0
    0.0000    0.0000    0.0000 H   0  0  0  0  0  0  0  0  0  0  0  0
    0.0000    0.0000    0.0000 H   0  0  0  0  0  0  0  0  0  0  0  0
    0.0000    0.0000    0.0000 H   0  0  0  0  0  0  0  0  0  0  0  0
    0.0000    0.0000    0.0000 H   0  0  0  0  0  0  0  0  0  0  0  0
    0.0000    0.0000    0.0000 H   0  0  0  0  0  0  0  0  0  0  0  0
    0.0000    0.0000    0.0000 H   0  0  0  0  0  0  0  0  0  0  0  0
    0.0000    0.0000    0.0000 H   0  0  0  0  0  0  0  0  0  0  0  0
    0.0000    0.0000    0.0000 H   0  0  0  0  0  0  0  0  0  0  0  0
    0.0000    0.0000    0.0000 H   0  0  0  0  0  0  0  0  0  0  0  0
    0.0000    0.0000    0.0000 H   0  0  0  0  0  0  0  0  0  0  0  0
    0.0000    0.0000    0.0000 H   0  0  0  0  0  0  0  0  0  0  0  0
    0.0000    0.0000    0.0000 H   0  0  0  0  0  0  0  0  0  0  0  0
    0.0000    0.0000    0.0000 H   0  0  0  0  0  0  0  0  0  0  0  0
    0.0000    0.0000    0.0000 H   0  0  0  0  0  0  0  0  0  0  0  0
    0.0000    0.0000    0.0000 H   0  0  0  0  0  0  0  0  0  0  0  0
    0.0000    0.0000    0.0000 H   0  0  0  0  0  0  0  0  0  0  0  0
    0.0000    0.0000    0.0000 H   0  0  0  0  0  0  0  0  0  0  0  0
    0.0000    0.0000    0.0000 H   0  0  0  0  0  0  0  0  0  0  0  0
    0.0000    0.0000    0.0000 H   0  0  0  0  0  0  0  0  0  0  0  0
    0.0000    0.0000    0.0000 H   0  0  0  0  0  0  0  0  0  0  0  0
    0.0000    0.0000    0.0000 H   0  0  0  0  0  0  0  0  0  0  0  0
    0.0000    0.0000    0.0000 H   0  0  0  0  0  0  0  0  0  0  0  0
    0.0000    0.0000    0.0000 H   0  0  0  0  0  0  0  0  0  0  0  0
    0.0000    0.0000    0.0000 H   0  0  0  0  0  0  0  0  0  0  0  0
    0.0000    0.0000    0.0000 H   0  0  0  0  0  0  0  0  0  0  0  0
    0.0000    0.0000    0.0000 H   0  0  0  0  0  0  0  0  0  0  0  0
    0.0000    0.0000    0.0000 H   0  0  0  0  0  0  0  0  0  0  0  0
    0.0000    0.0000    0.0000 H   0  0  0  0  0  0  0  0  0  0  0  0
    0.0000    0.0000    0.0000 H   0  0  0  0  0  0  0  0  0  0  0  0
    0.0000    0.0000    0.0000 H   0  0  0  0  0  0  0  0  0  0  0  0
    0.0000    0.0000    0.0000 H   0  0  0  0  0  0  0  0  0  0  0  0
    0.0000    0.0000    0.0000 H   0  0  0  0  0  0  0  0  0  0  0  0
    0.0000    0.0000    0.0000 H   0  0  0  0  0  0  0  0  0  0  0  0
    0.0000    0.0000    0.0000 H   0  0  0  0  0  0  0  0  0  0  0  0
    0.0000    0.0000    0.0000 H   0  0  0  0  0  0  0  0  0  0  0  0
    0.0000    0.0000    0.0000 H   0  0  0  0  0  0  0  0  0  0  0  0
    0.0000    0.0000    0.0000 H   0  0  0  0  0  0  0  0  0  0  0  0
    0.0000    0.0000    0.0000 H   0  0  0  0  0  0  0  0  0  0  0  0
    0.0000    0.0000    0.0000 H   0  0  0  0  0  0  0  0  0  0  0  0
    0.0000    0.0000    0.0000 H   0  0  0  0  0  0  0  0  0  0  0  0
    0.0000    0.0000    0.0000 H   0  0  0  0  0  0  0  0  0  0  0  0
    0.0000    0.0000    0.0000 H   0  0  0  0  0  0  0  0  0  0  0  0
    0.0000    0.0000    0.0000 H   0  0  0  0  0  0  0  0  0  0  0  0
    0.0000    0.0000    0.0000 H   0  0  0  0  0  0  0  0  0  0  0  0
    0.0000    0.0000    0.0000 H   0  0  0  0  0  0  0  0  0  0  0  0
    0.0000    0.0000    0.0000 H   0  0  0  0  0  0  0  0  0  0  0  0
    0.0000    0.0000    0.0000 H   0  0  0  0  0  0  0  0  0  0  0  0
    0.0000    0.0000    0.0000 H   0  0  0  0  0  0  0  0  0  0  0  0
    0.0000    0.0000    0.0000 H   0  0  0  0  0  0  0  0  0  0  0  0
    0.0000    0.0000    0.0000 H   0  0  0  0  0  0  0  0  0  0  0  0
    0.0000    0.0000    0.0000 H   0  0  0  0  0  0  0  0  0  0  0  0
    0.0000    0.0000    0.0000 H   0  0  0  0  0  0  0  0  0  0  0  0
    0.0000    0.0000    0.0000 H   0  0  0  0  0  0  0  0  0  0  0  0
  1 23  1  0
  1 25  1  0
  2 24  1  0
  2 27  1  0
  3 26  1  0
  3 29  1  0
  4 28  1  0
  4 31  1  0
  5 30  1  0
  5 32  1  0
  6 33  1  0
  6 36  1  0
  7 35  1  0
  7 37  1  0
  8 34  1  0
  8 38  1  0
  9 39  1  0
  9 40  1  0
 10 35  2  0
 11 41  1  0
 11 42  1  0
 12 14  1  0
 12 16  1  0
 13 14  1  0
 13 15  1  0
 15 17  1  0
 16 18  2  0
 16 19  1  0
 18 21  1  0
 19 22  2  0
 20 21  2  0
 20 22  1  0
 20 35  1  0
 23 24  1  0
 25 26  1  0
 27 28  1  0
 29 30  1  0
 31 34  1  0
 32 33  1  0
 36 37  1  0
 38 39  1  0
 40 41  1  0
 12 43  1  0
 13 44  1  0
 13 45  1  0
 14 46  1  0
 14 47  1  0
 15 48  1  0
 15 49  1  0
 17 50  1  0
 17 51  1  0
 17 52  1  0
 18 53  1  0
 19 54  1  0
 21 55  1  0
 22 56  1  0
 23 57  1  0
 23 58  1  0
 24 59  1  0
 24 60  1  0
 25 61  1  0
 25 62  1  0
 26 63  1  0
 26 64  1  0
 27 65  1  0
 27 66  1  0
 28 67  1  0
 28 68  1  0
 29 69  1  0
 29 70  1  0
 30 71  1  0
 30 72  1  0
 31 73  1  0
 31 74  1  0
 32 75  1  0
 32 76  1  0
 33 77  1  0
 33 78  1  0
 34 79  1  0
 34 80  1  0
 36 81  1  0
 36 82  1  0
 37 83  1  0
 37 84  1  0
 38 85  1  0
 38 86  1  0
 39 87  1  0
 39 88  1  0
 40 89  1  0
 40 90  1  0
 41 91  1  0
 41 92  1  0
 42 93  1  0
 42 94  1  0
 42 95  1  0
M  END
>  <ALOGPS_LOGP>  (1) 
2.09

>  <ALOGPS_LOGS>  (1) 
-5.58

>  <ALOGPS_SOLUBILITY>  (1) 
1.59e-03 g/l

>  <DATABASE_ID>  (1) 
DB00868

>  <DATABASE_NAME>  (1) 
drugbank

>  <DRUGBANK_ID>  (1) 
DB00868

>  <DRUG_GROUPS>  (1) 
approved

>  <EXACT_MASS>  (1) 
603.361861543

>  <FORMULA>  (1) 
C30H53NO11

>  <GENERIC_NAME>  (1) 
Benzonatate

>  <INCHI_IDENTIFIER>  (1) 
InChI=1S/C30H53NO11/c1-3-4-9-31-29-7-5-28(6-8-29)30(32)42-27-26-41-25-24-40-23-22-39-21-20-38-19-18-37-17-16-36-15-14-35-13-12-34-11-10-33-2/h5-8,31H,3-4,9-27H2,1-2H3

>  <INCHI_KEY>  (1) 
MAFMQEKGGFWBAB-UHFFFAOYSA-N

>  <INTERNATIONAL_BRANDS>  (1) 
Tesaperl

>  <JCHEM_ACCEPTOR_COUNT>  (1) 
11

>  <JCHEM_AVERAGE_POLARIZABILITY>  (1) 
67.86581887228658

>  <JCHEM_BIOAVAILABILITY>  (1) 
0

>  <JCHEM_DONOR_COUNT>  (1) 
1

>  <JCHEM_FORMAL_CHARGE>  (1) 
0

>  <JCHEM_GHOSE_FILTER>  (1) 
0

>  <JCHEM_IUPAC>  (1) 
2,5,8,11,14,17,20,23,26-nonaoxaoctacosan-28-yl 4-(butylamino)benzoate

>  <JCHEM_LOGP>  (1) 
2.350620347000001

>  <JCHEM_MDDR_LIKE_RULE>  (1) 
0

>  <JCHEM_NUMBER_OF_RINGS>  (1) 
1

>  <JCHEM_PHYSIOLOGICAL_CHARGE>  (1) 
0

>  <JCHEM_PKA_STRONGEST_BASIC>  (1) 
3.4742756540197273

>  <JCHEM_POLAR_SURFACE_AREA>  (1) 
121.40000000000002

>  <JCHEM_REFRACTIVITY>  (1) 
161.54219999999992

>  <JCHEM_ROTATABLE_BOND_COUNT>  (1) 
33

>  <JCHEM_RULE_OF_FIVE>  (1) 
0

>  <JCHEM_TRADITIONAL_IUPAC>  (1) 
benzonatate

>  <JCHEM_VEBER_RULE>  (1) 
0

>  <MOLECULAR_WEIGHT>  (1) 
603.7419

>  <PRODUCTS>  (1) 
Benzonatate; Tessalon; Zonatuss

>  <SECONDARY_ACCESSION_NUMBERS>  (1) 
APRD00629

>  <SMILES>  (1) 
CCCCNC1=CC=C(C=C1)C(=O)OCCOCCOCCOCCOCCOCCOCCOCCOCCOC

>  <SYNONYMS>  (1) 
Benzonatat; Benzonatate; Benzonatato; Benzonatatum

$$$$
