568
     RDKit          2D

 56 59  0  0  0  0  0  0  0  0999 V2000
    3.7935   -1.4438    0.0000 N   0  0  0  0  0  0  0  0  0  0  0  0
    3.7935    0.2063    0.0000 N   0  0  0  0  0  0  0  0  0  0  0  0
    3.0791   -1.0313    0.0000 C   0  0  0  0  0  0  0  0  0  0  0  0
    4.5080   -1.0313    0.0000 C   0  0  0  0  0  0  0  0  0  0  0  0
    3.7935   -2.2688    0.0000 C   0  0  0  0  0  0  0  0  0  0  0  0
    3.0791   -0.2063    0.0000 C   0  0  0  0  0  0  0  0  0  0  0  0
    4.5080   -0.2063    0.0000 C   0  0  0  0  0  0  0  0  0  0  0  0
    3.7935    1.0313    0.0000 C   0  0  0  0  0  0  0  0  0  0  0  0
    4.5080   -2.6813    0.0000 C   0  0  0  0  0  0  0  0  0  0  0  0
    3.0791   -2.6813    0.0000 C   0  0  0  0  0  0  0  0  0  0  0  0
    4.5080    1.4438    0.0000 C   0  0  0  0  0  0  0  0  0  0  0  0
    5.2224   -2.2688    0.0000 C   0  0  0  0  0  0  0  0  0  0  0  0
    3.0791   -3.5063    0.0000 C   0  0  0  0  0  0  0  0  0  0  0  0
    4.5080   -3.5063    0.0000 C   0  0  0  0  0  0  0  0  0  0  0  0
    2.3645   -2.2688    0.0000 C   0  0  0  0  0  0  0  0  0  0  0  0
    5.9370   -2.6813    0.0000 C   0  0  0  0  0  0  0  0  0  0  0  0
    2.3645   -3.9188    0.0000 C   0  0  0  0  0  0  0  0  0  0  0  0
    5.2224   -3.9188    0.0000 C   0  0  0  0  0  0  0  0  0  0  0  0
    1.6500   -2.6813    0.0000 C   0  0  0  0  0  0  0  0  0  0  0  0
    4.5080    2.2688    0.0000 C   0  0  0  0  0  0  0  0  0  0  0  0
    5.9370   -3.5063    0.0000 C   0  0  0  0  0  0  0  0  0  0  0  0
    1.6500   -3.5063    0.0000 C   0  0  0  0  0  0  0  0  0  0  0  0
    5.2224    2.6813    0.0000 C   0  0  0  0  0  0  0  0  0  0  0  0
    5.2224    3.5063    0.0000 C   0  0  0  0  0  0  0  0  0  0  0  0
    5.9370    2.2688    0.0000 C   0  0  0  0  0  0  0  0  0  0  0  0
    5.9370    3.9188    0.0000 C   0  0  0  0  0  0  0  0  0  0  0  0
    6.6515    2.6813    0.0000 C   0  0  0  0  0  0  0  0  0  0  0  0
    6.6515    3.5063    0.0000 C   0  0  0  0  0  0  0  0  0  0  0  0
    0.0000    0.0000    0.0000 H   0  0  0  0  0  0  0  0  0  0  0  0
    0.0000    0.0000    0.0000 H   0  0  0  0  0  0  0  0  0  0  0  0
    0.0000    0.0000    0.0000 H   0  0  0  0  0  0  0  0  0  0  0  0
    0.0000    0.0000    0.0000 H   0  0  0  0  0  0  0  0  0  0  0  0
    0.0000    0.0000    0.0000 H   0  0  0  0  0  0  0  0  0  0  0  0
    0.0000    0.0000    0.0000 H   0  0  0  0  0  0  0  0  0  0  0  0
    0.0000    0.0000    0.0000 H   0  0  0  0  0  0  0  0  0  0  0  0
    0.0000    0.0000    0.0000 H   0  0  0  0  0  0  0  0  0  0  0  0
    0.0000    0.0000    0.0000 H   0  0  0  0  0  0  0  0  0  0  0  0
    0.0000    0.0000    0.0000 H   0  0  0  0  0  0  0  0  0  0  0  0
    0.0000    0.0000    0.0000 H   0  0  0  0  0  0  0  0  0  0  0  0
    0.0000    0.0000    0.0000 H   0  0  0  0  0  0  0  0  0  0  0  0
    0.0000    0.0000    0.0000 H   0  0  0  0  0  0  0  0  0  0  0  0
    0.0000    0.0000    0.0000 H   0  0  0  0  0  0  0  0  0  0  0  0
    0.0000    0.0000    0.0000 H   0  0  0  0  0  0  0  0  0  0  0  0
    0.0000    0.0000    0.0000 H   0  0  0  0  0  0  0  0  0  0  0  0
    0.0000    0.0000    0.0000 H   0  0  0  0  0  0  0  0  0  0  0  0
    0.0000    0.0000    0.0000 H   0  0  0  0  0  0  0  0  0  0  0  0
    0.0000    0.0000    0.0000 H   0  0  0  0  0  0  0  0  0  0  0  0
    0.0000    0.0000    0.0000 H   0  0  0  0  0  0  0  0  0  0  0  0
    0.0000    0.0000    0.0000 H   0  0  0  0  0  0  0  0  0  0  0  0
    0.0000    0.0000    0.0000 H   0  0  0  0  0  0  0  0  0  0  0  0
    0.0000    0.0000    0.0000 H   0  0  0  0  0  0  0  0  0  0  0  0
    0.0000    0.0000    0.0000 H   0  0  0  0  0  0  0  0  0  0  0  0
    0.0000    0.0000    0.0000 H   0  0  0  0  0  0  0  0  0  0  0  0
    0.0000    0.0000    0.0000 H   0  0  0  0  0  0  0  0  0  0  0  0
    0.0000    0.0000    0.0000 H   0  0  0  0  0  0  0  0  0  0  0  0
    0.0000    0.0000    0.0000 H   0  0  0  0  0  0  0  0  0  0  0  0
  1  3  1  0
  1  4  1  0
  1  5  1  0
  2  6  1  0
  2  7  1  0
  2  8  1  0
  3  6  1  0
  4  7  1  0
  5  9  1  0
  5 10  1  0
  8 11  1  0
  9 12  2  0
  9 14  1  0
 10 13  2  0
 10 15  1  0
 11 20  2  3
 12 16  1  0
 13 17  1  0
 14 18  2  0
 15 19  2  0
 16 21  2  0
 17 22  2  0
 18 21  1  0
 19 22  1  0
 20 23  1  0
 23 24  2  0
 23 25  1  0
 24 26  1  0
 25 27  2  0
 26 28  2  0
 27 28  1  0
  3 29  1  0
  3 30  1  0
  4 31  1  0
  4 32  1  0
  5 33  1  0
  6 34  1  0
  6 35  1  0
  7 36  1  0
  7 37  1  0
  8 38  1  0
  8 39  1  0
 11 40  1  0
 12 41  1  0
 13 42  1  0
 14 43  1  0
 15 44  1  0
 16 45  1  0
 17 46  1  0
 18 47  1  0
 19 48  1  0
 20 49  1  0
 21 50  1  0
 22 51  1  0
 24 52  1  0
 25 53  1  0
 26 54  1  0
 27 55  1  0
 28 56  1  0
M  END
>  <ALOGPS_LOGP>  (1) 
5.19

>  <ALOGPS_LOGS>  (1) 
-5.33

>  <ALOGPS_SOLUBILITY>  (1) 
1.72e-03 g/l

>  <DATABASE_ID>  (1) 
DB00568

>  <DATABASE_NAME>  (1) 
drugbank

>  <DRUGBANK_ID>  (1) 
DB00568

>  <DRUG_GROUPS>  (1) 
approved; investigational

>  <EXACT_MASS>  (1) 
368.225248906

>  <FORMULA>  (1) 
C26H28N2

>  <GENERIC_NAME>  (1) 
Cinnarizine

>  <INCHI_IDENTIFIER>  (1) 
InChI=1S/C26H28N2/c1-4-11-23(12-5-1)13-10-18-27-19-21-28(22-20-27)26(24-14-6-2-7-15-24)25-16-8-3-9-17-25/h1-17,26H,18-22H2

>  <INCHI_KEY>  (1) 
DERZBLKQOCDDDZ-UHFFFAOYSA-N

>  <INTERNATIONAL_BRANDS>  (1) 
Cinazyn; Cinnageron; Folcodal; Sepan; Stugeron; Stugeron Forte; Toliman

>  <JCHEM_ACCEPTOR_COUNT>  (1) 
2

>  <JCHEM_AVERAGE_POLARIZABILITY>  (1) 
43.96337681178743

>  <JCHEM_BIOAVAILABILITY>  (1) 
1

>  <JCHEM_DONOR_COUNT>  (1) 
0

>  <JCHEM_FORMAL_CHARGE>  (1) 
0

>  <JCHEM_GHOSE_FILTER>  (1) 
0

>  <JCHEM_IUPAC>  (1) 
1-(diphenylmethyl)-4-(3-phenylprop-2-en-1-yl)piperazine

>  <JCHEM_LOGP>  (1) 
5.88039114

>  <JCHEM_MDDR_LIKE_RULE>  (1) 
1

>  <JCHEM_NUMBER_OF_RINGS>  (1) 
4

>  <JCHEM_PHYSIOLOGICAL_CHARGE>  (1) 
1

>  <JCHEM_PKA_STRONGEST_BASIC>  (1) 
8.398543592576612

>  <JCHEM_POLAR_SURFACE_AREA>  (1) 
6.48

>  <JCHEM_REFRACTIVITY>  (1) 
119.86480000000005

>  <JCHEM_ROTATABLE_BOND_COUNT>  (1) 
6

>  <JCHEM_RULE_OF_FIVE>  (1) 
0

>  <JCHEM_TRADITIONAL_IUPAC>  (1) 
cinnarizine

>  <JCHEM_VEBER_RULE>  (1) 
1

>  <MOLECULAR_WEIGHT>  (1) 
368.5139

>  <SALTS>  (1) 
Cinnarizine hydrochloride

>  <SECONDARY_ACCESSION_NUMBERS>  (1) 
APRD00332

>  <SMILES>  (1) 
C(C=CC1=CC=CC=C1)N1CCN(CC1)C(C1=CC=CC=C1)C1=CC=CC=C1

>  <SYNONYMS>  (1) 
1-(Diphenylmethyl)-4-(3-phenyl-2-propenyl)piperazine; 1-Benzhydryl-4-cinnamylpiperazin; 1-Cinnamyl-4-(diphenylmethyl)piperazine; Cinarizina; Cinnarizine; Cinnarizinum

$$$$
