ChEBI
     RDKit          2D

 26 25  0  0  1  0  0  0  0  0999 V2000
    4.3754   -2.8827    0.0000 C   0  0  0  0  0  0  0  0  0  0  0  0
    5.0946   -3.2870    0.0000 C   0  0  0  0  0  0  0  0  0  0  0  0
    5.8075   -2.8663    0.0000 C   0  0  0  0  0  0  0  0  0  0  0  0
    6.5267   -3.2705    0.0000 C   0  0  0  0  0  0  0  0  0  0  0  0
    7.2397   -2.8498    0.0000 C   0  0  0  0  0  0  0  0  0  0  0  0
    7.9588   -3.2540    0.0000 C   0  0  0  0  0  0  0  0  0  0  0  0
    3.6748   -3.2962    0.0000 O   0  0  0  0  0  0  0  0  0  0  0  0
    5.1008   -4.1119    0.0000 O   0  0  0  0  0  0  0  0  0  0  0  0
    5.8013   -2.0413    0.0000 O   0  0  0  0  0  0  0  0  0  0  0  0
    6.5329   -4.0955    0.0000 O   0  0  0  0  0  0  0  0  0  0  0  0
    7.2334   -2.0248    0.0000 O   0  0  0  0  0  0  0  0  0  0  0  0
    7.9650   -4.0790    0.0000 O   0  0  0  0  0  0  0  0  0  0  0  0
    0.0000    0.0000    0.0000 H   0  0  0  0  0  0  0  0  0  0  0  0
    0.0000    0.0000    0.0000 H   0  0  0  0  0  0  0  0  0  0  0  0
    0.0000    0.0000    0.0000 H   0  0  0  0  0  0  0  0  0  0  0  0
    0.0000    0.0000    0.0000 H   0  0  0  0  0  0  0  0  0  0  0  0
    0.0000    0.0000    0.0000 H   0  0  0  0  0  0  0  0  0  0  0  0
    0.0000    0.0000    0.0000 H   0  0  0  0  0  0  0  0  0  0  0  0
    0.0000    0.0000    0.0000 H   0  0  0  0  0  0  0  0  0  0  0  0
    0.0000    0.0000    0.0000 H   0  0  0  0  0  0  0  0  0  0  0  0
    0.0000    0.0000    0.0000 H   0  0  0  0  0  0  0  0  0  0  0  0
    0.0000    0.0000    0.0000 H   0  0  0  0  0  0  0  0  0  0  0  0
    0.0000    0.0000    0.0000 H   0  0  0  0  0  0  0  0  0  0  0  0
    0.0000    0.0000    0.0000 H   0  0  0  0  0  0  0  0  0  0  0  0
    0.0000    0.0000    0.0000 H   0  0  0  0  0  0  0  0  0  0  0  0
    0.0000    0.0000    0.0000 H   0  0  0  0  0  0  0  0  0  0  0  0
  7  1  1  0
  2  1  1  6
  2  8  1  0
  3  2  1  0
  3  9  1  1
  4  3  1  0
  4 10  1  1
  5  4  1  0
  5 11  1  6
  6  5  1  0
 12  6  1  0
  1 13  1  0
  1 14  1  0
  2 15  1  0
  3 16  1  0
  4 17  1  0
  5 18  1  0
  6 19  1  0
  6 20  1  0
  7 21  1  0
  8 22  1  0
  9 23  1  0
 10 24  1  0
 11 25  1  0
 12 26  1  0
M  END
>  <ALOGPS_LOGP>  (1) 
-2.68

>  <ALOGPS_LOGS>  (1) 
0.10

>  <ALOGPS_SOLUBILITY>  (1) 
2.29e+02 g/l

>  <DATABASE_ID>  (1) 
DB00742

>  <DATABASE_NAME>  (1) 
drugbank

>  <DRUGBANK_ID>  (1) 
DB00742

>  <DRUG_GROUPS>  (1) 
approved; investigational

>  <EXACT_MASS>  (1) 
182.07903818

>  <FORMULA>  (1) 
C6H14O6

>  <GENERIC_NAME>  (1) 
Mannitol

>  <INCHI_IDENTIFIER>  (1) 
InChI=1S/C6H14O6/c7-1-3(9)5(11)6(12)4(10)2-8/h3-12H,1-2H2/t3-,4-,5-,6-/m1/s1

>  <INCHI_KEY>  (1) 
FBPFZTCFMRRESA-KVTDHHQDSA-N

>  <INTERNATIONAL_BRANDS>  (1) 
Anol; Aridol; Bronchitol; Deltamannit; Demanitol; Diurecide; Isotol; Manicol; Manit; Manitol Mein; Maniton; Mannigen; Mannisol; Mannisol A; Mannit; Mannit-LÃ¶sung; Mannite Actipharm; Osmofundin; Osmohale; Osmosol; Osmosteril; Resectisol

>  <JCHEM_ACCEPTOR_COUNT>  (1) 
6

>  <JCHEM_AVERAGE_POLARIZABILITY>  (1) 
16.819193636818536

>  <JCHEM_BIOAVAILABILITY>  (1) 
1

>  <JCHEM_DONOR_COUNT>  (1) 
6

>  <JCHEM_FORMAL_CHARGE>  (1) 
0

>  <JCHEM_GHOSE_FILTER>  (1) 
0

>  <JCHEM_IUPAC>  (1) 
(2R,3R,4R,5R)-hexane-1,2,3,4,5,6-hexol

>  <JCHEM_LOGP>  (1) 
-3.7300188486666666

>  <JCHEM_MDDR_LIKE_RULE>  (1) 
0

>  <JCHEM_NUMBER_OF_RINGS>  (1) 
0

>  <JCHEM_PHYSIOLOGICAL_CHARGE>  (1) 
0

>  <JCHEM_PKA>  (1) 
13.37874915684328

>  <JCHEM_PKA_STRONGEST_ACIDIC>  (1) 
12.585200956788803

>  <JCHEM_PKA_STRONGEST_BASIC>  (1) 
-2.974211614825128

>  <JCHEM_POLAR_SURFACE_AREA>  (1) 
121.38000000000001

>  <JCHEM_REFRACTIVITY>  (1) 
38.40359999999999

>  <JCHEM_ROTATABLE_BOND_COUNT>  (1) 
5

>  <JCHEM_RULE_OF_FIVE>  (1) 
0

>  <JCHEM_TRADITIONAL_IUPAC>  (1) 
mannitol

>  <JCHEM_VEBER_RULE>  (1) 
0

>  <MOLECULAR_WEIGHT>  (1) 
182.1718

>  <PRODUCTS>  (1) 
Additive Solution Sodium Adenine Glucose Mannitol (sagm); Bronchitol; Cystosol W 3% Hexitols; GD11 Rx SCM C5; LeukoTrap SOLX A Additive; Leukosep - Solx A Additive Solution; Mannitol; Mannitol Inj 10% Abbovac; Mannitol Inj 25%; Mannitol Inj 5% Abbovac; Mannitol Injection; Mannitol Injection USP; Osmitrol; Osmitrol 10% Inj USP; Osmitrol 20% Inj USP; Resectisol (5% Mannitol Irrigation); Sag-M; Sag-mannitol Solution; Sorbitol Mannitol Irrigation; Sorbitol-Mannitol

>  <SECONDARY_ACCESSION_NUMBERS>  (1) 
APRD01083; EXPT02246

>  <SMILES>  (1) 
OC[C@@H](O)[C@@H](O)[C@H](O)[C@H](O)CO

>  <SYNONYMS>  (1) 
Fraxinine; Manitol; Manna Sugar; Mannit; Mannite; Mannitol; Mannitolum

$$$$
