577
     RDKit          2D

 43 44  0  0  1  0  0  0  0  0999 V2000
    7.4006    1.4761    0.0000 O   0  0  0  0  0  0  0  0  0  0  0  0
    6.0807   -0.2624    0.0000 O   0  0  0  0  0  0  0  0  0  0  0  0
    8.7589    1.0322    0.0000 O   0  0  0  0  0  0  0  0  0  0  0  0
    3.5220   -3.5307    0.0000 O   0  0  0  0  0  0  0  0  0  0  0  0
    5.0171   -1.2167    0.0000 N   0  0  0  0  0  0  0  0  0  0  0  0
    7.9132    3.0445    0.0000 N   0  0  0  0  0  0  0  0  0  0  0  0
    3.5220   -1.0556    0.0000 N   0  0  0  0  0  0  0  0  0  0  0  0
    5.0171   -2.5446    0.0000 N   0  0  0  0  0  0  0  0  0  0  0  0
    2.8075   -2.2931    0.0000 N   0  0  0  0  0  0  0  0  0  0  0  0
    2.0930   -1.0556    0.0000 N   0  0  0  0  0  0  0  0  0  0  0  0
    9.2715    2.6005    0.0000 C   0  0  0  0  0  0  0  0  0  0  0  0
    8.4642    2.4304    0.0000 C   0  0  0  0  0  0  0  0  0  0  0  0
    9.8224    1.9865    0.0000 C   0  0  0  0  0  0  0  0  0  0  0  0
    9.5278    3.3848    0.0000 C   0  0  0  0  0  0  0  0  0  0  0  0
    8.2079    1.6462    0.0000 C   0  0  0  0  0  0  0  0  0  0  0  0
    4.2365   -1.4681    0.0000 C   0  0  0  0  0  0  0  0  0  0  0  0
    5.2734   -0.4326    0.0000 C   0  0  0  0  0  0  0  0  0  0  0  0
    7.1443    0.6919    0.0000 C   0  0  0  0  0  0  0  0  0  0  0  0
    4.2365   -2.2931    0.0000 C   0  0  0  0  0  0  0  0  0  0  0  0
    6.3370    0.5217    0.0000 C   0  0  0  0  0  0  0  0  0  0  0  0
    5.4986   -1.8806    0.0000 C   0  0  0  0  0  0  0  0  0  0  0  0
    3.5220   -2.7056    0.0000 C   0  0  0  0  0  0  0  0  0  0  0  0
    2.8075   -1.4681    0.0000 C   0  0  0  0  0  0  0  0  0  0  0  0
    0.0000    0.0000    0.0000 H   0  0  0  0  0  0  0  0  0  0  0  0
    0.0000    0.0000    0.0000 H   0  0  0  0  0  0  0  0  0  0  0  0
    0.0000    0.0000    0.0000 H   0  0  0  0  0  0  0  0  0  0  0  0
    0.0000    0.0000    0.0000 H   0  0  0  0  0  0  0  0  0  0  0  0
    0.0000    0.0000    0.0000 H   0  0  0  0  0  0  0  0  0  0  0  0
    0.0000    0.0000    0.0000 H   0  0  0  0  0  0  0  0  0  0  0  0
    0.0000    0.0000    0.0000 H   0  0  0  0  0  0  0  0  0  0  0  0
    0.0000    0.0000    0.0000 H   0  0  0  0  0  0  0  0  0  0  0  0
    0.0000    0.0000    0.0000 H   0  0  0  0  0  0  0  0  0  0  0  0
    0.0000    0.0000    0.0000 H   0  0  0  0  0  0  0  0  0  0  0  0
    0.0000    0.0000    0.0000 H   0  0  0  0  0  0  0  0  0  0  0  0
    0.0000    0.0000    0.0000 H   0  0  0  0  0  0  0  0  0  0  0  0
    0.0000    0.0000    0.0000 H   0  0  0  0  0  0  0  0  0  0  0  0
    0.0000    0.0000    0.0000 H   0  0  0  0  0  0  0  0  0  0  0  0
    0.0000    0.0000    0.0000 H   0  0  0  0  0  0  0  0  0  0  0  0
    0.0000    0.0000    0.0000 H   0  0  0  0  0  0  0  0  0  0  0  0
    0.0000    0.0000    0.0000 H   0  0  0  0  0  0  0  0  0  0  0  0
    0.0000    0.0000    0.0000 H   0  0  0  0  0  0  0  0  0  0  0  0
    0.0000    0.0000    0.0000 H   0  0  0  0  0  0  0  0  0  0  0  0
    0.0000    0.0000    0.0000 H   0  0  0  0  0  0  0  0  0  0  0  0
  1 15  1  0
  1 18  1  0
  2 17  1  0
  2 20  1  0
  3 15  2  0
  4 22  2  0
  5 16  1  0
  5 17  1  0
  5 21  1  0
 12  6  1  1
  7 16  1  0
  7 23  1  0
  8 19  1  0
  8 21  2  0
  9 22  1  0
  9 23  2  0
 10 23  1  0
 11 12  1  0
 11 13  1  0
 11 14  1  0
 12 15  1  0
 16 19  2  0
 18 20  1  0
 19 22  1  0
  6 24  1  0
  6 25  1  0
  7 26  1  0
 10 27  1  0
 10 28  1  0
 11 29  1  0
 12 30  1  0
 13 31  1  0
 13 32  1  0
 13 33  1  0
 14 34  1  0
 14 35  1  0
 14 36  1  0
 17 37  1  0
 17 38  1  0
 18 39  1  0
 18 40  1  0
 20 41  1  0
 20 42  1  0
 21 43  1  0
M  END
>  <ALOGPS_LOGP>  (1) 
-0.84

>  <ALOGPS_LOGS>  (1) 
-1.96

>  <ALOGPS_SOLUBILITY>  (1) 
3.55e+00 g/l

>  <DATABASE_ID>  (1) 
DB00577

>  <DATABASE_NAME>  (1) 
drugbank

>  <DRUGBANK_ID>  (1) 
DB00577

>  <DRUG_GROUPS>  (1) 
approved; investigational

>  <EXACT_MASS>  (1) 
324.154603158

>  <FORMULA>  (1) 
C13H20N6O4

>  <GENERIC_NAME>  (1) 
Valaciclovir

>  <INCHI_IDENTIFIER>  (1) 
InChI=1S/C13H20N6O4/c1-7(2)8(14)12(21)23-4-3-22-6-19-5-16-9-10(19)17-13(15)18-11(9)20/h5,7-8H,3-4,6,14H2,1-2H3,(H3,15,17,18,20)/t8-/m0/s1

>  <INCHI_KEY>  (1) 
HDOVUKNUBWVHOX-QMMMGPOBSA-N

>  <INTERNATIONAL_BRANDS>  (1) 
Bagovir; Cycloval; Mitanga; Ovalac; Pervioral; Revira; Vacyless; Vadiral; Valdacir; Valotix; Valvir; Valztrex; Viramixal; Viropel; Vociflon; Zelitrex; Zelivire

>  <JCHEM_ACCEPTOR_COUNT>  (1) 
8

>  <JCHEM_AVERAGE_POLARIZABILITY>  (1) 
31.962620437502157

>  <JCHEM_BIOAVAILABILITY>  (1) 
1

>  <JCHEM_DONOR_COUNT>  (1) 
3

>  <JCHEM_FORMAL_CHARGE>  (1) 
0

>  <JCHEM_GHOSE_FILTER>  (1) 
0

>  <JCHEM_IUPAC>  (1) 
2-[(2-amino-6-oxo-6,9-dihydro-3H-purin-9-yl)methoxy]ethyl (2S)-2-amino-3-methylbutanoate

>  <JCHEM_LOGP>  (1) 
-0.4515211673024856

>  <JCHEM_MDDR_LIKE_RULE>  (1) 
0

>  <JCHEM_NUMBER_OF_RINGS>  (1) 
2

>  <JCHEM_PHYSIOLOGICAL_CHARGE>  (1) 
1

>  <JCHEM_PKA_STRONGEST_ACIDIC>  (1) 
8.103872742361135

>  <JCHEM_PKA_STRONGEST_BASIC>  (1) 
7.360683231885472

>  <JCHEM_POLAR_SURFACE_AREA>  (1) 
146.85

>  <JCHEM_REFRACTIVITY>  (1) 
80.6341

>  <JCHEM_ROTATABLE_BOND_COUNT>  (1) 
8

>  <JCHEM_RULE_OF_FIVE>  (1) 
1

>  <JCHEM_TRADITIONAL_IUPAC>  (1) 
valtrex

>  <JCHEM_VEBER_RULE>  (1) 
0

>  <MOLECULAR_WEIGHT>  (1) 
324.3357

>  <PRODUCTS>  (1) 
Apo-valacyclovir; Auro-valacyclovir; Bio-valacyclovir; Co Valacyclovir; Dom-valacyclovir; Ipg-valacyclovir; Jamp-valacyclovir; Mar-valacyclovir; Mylan-valacyclovir; PHL-valacyclovir; PMS-valacyclovir; Priva-valacyclovir; Pro-valacyclovir; Riva-valacyclovir; Sandoz Valacyclovir; Teva-valacyclovir; Valacyclovir; Valacyclovir Hydrochloride; Valacyclovir hydrochloride; Valtrex; Van-valacyclovir

>  <SALTS>  (1) 
Valaciclovir Hydrochloride

>  <SECONDARY_ACCESSION_NUMBERS>  (1) 
APRD00697

>  <SMILES>  (1) 
CC(C)[C@H](N)C(=O)OCCOCN1C=NC2=C1NC(N)=NC2=O

>  <SYNONYMS>  (1) 
Valaciclovirum; Valacyclovir

$$$$
