518
     RDKit          2D

 33 34  0  0  0  0  0  0  0  0999 V2000
    3.7935    0.9644    0.0000 S   0  0  0  0  0  0  0  0  0  0  0  0
    9.2617   -0.5750    0.0000 O   0  0  0  0  0  0  0  0  0  0  0  0
    8.0241   -1.2896    0.0000 O   0  0  0  0  0  0  0  0  0  0  0  0
    6.7176    0.8033    0.0000 N   0  0  0  0  0  0  0  0  0  0  0  0
    6.7176   -0.5245    0.0000 N   0  0  0  0  0  0  0  0  0  0  0  0
    8.0241    0.1394    0.0000 N   0  0  0  0  0  0  0  0  0  0  0  0
    5.9370    0.5519    0.0000 C   0  0  0  0  0  0  0  0  0  0  0  0
    5.9370   -0.2731    0.0000 C   0  0  0  0  0  0  0  0  0  0  0  0
    4.5080    0.5519    0.0000 C   0  0  0  0  0  0  0  0  0  0  0  0
    5.2224    0.9644    0.0000 C   0  0  0  0  0  0  0  0  0  0  0  0
    5.2224   -0.6856    0.0000 C   0  0  0  0  0  0  0  0  0  0  0  0
    7.1991    0.1394    0.0000 C   0  0  0  0  0  0  0  0  0  0  0  0
    3.0791    0.5519    0.0000 C   0  0  0  0  0  0  0  0  0  0  0  0
    4.5080   -0.2731    0.0000 C   0  0  0  0  0  0  0  0  0  0  0  0
    2.3645    0.9644    0.0000 C   0  0  0  0  0  0  0  0  0  0  0  0
    1.6500    0.5519    0.0000 C   0  0  0  0  0  0  0  0  0  0  0  0
    8.4366   -0.5750    0.0000 C   0  0  0  0  0  0  0  0  0  0  0  0
    9.6742   -1.2896    0.0000 C   0  0  0  0  0  0  0  0  0  0  0  0
    0.0000    0.0000    0.0000 H   0  0  0  0  0  0  0  0  0  0  0  0
    0.0000    0.0000    0.0000 H   0  0  0  0  0  0  0  0  0  0  0  0
    0.0000    0.0000    0.0000 H   0  0  0  0  0  0  0  0  0  0  0  0
    0.0000    0.0000    0.0000 H   0  0  0  0  0  0  0  0  0  0  0  0
    0.0000    0.0000    0.0000 H   0  0  0  0  0  0  0  0  0  0  0  0
    0.0000    0.0000    0.0000 H   0  0  0  0  0  0  0  0  0  0  0  0
    0.0000    0.0000    0.0000 H   0  0  0  0  0  0  0  0  0  0  0  0
    0.0000    0.0000    0.0000 H   0  0  0  0  0  0  0  0  0  0  0  0
    0.0000    0.0000    0.0000 H   0  0  0  0  0  0  0  0  0  0  0  0
    0.0000    0.0000    0.0000 H   0  0  0  0  0  0  0  0  0  0  0  0
    0.0000    0.0000    0.0000 H   0  0  0  0  0  0  0  0  0  0  0  0
    0.0000    0.0000    0.0000 H   0  0  0  0  0  0  0  0  0  0  0  0
    0.0000    0.0000    0.0000 H   0  0  0  0  0  0  0  0  0  0  0  0
    0.0000    0.0000    0.0000 H   0  0  0  0  0  0  0  0  0  0  0  0
    0.0000    0.0000    0.0000 H   0  0  0  0  0  0  0  0  0  0  0  0
  1  9  1  0
  1 13  1  0
  2 17  1  0
  2 18  1  0
  3 17  2  0
  4  7  1  0
  4 12  1  0
  5  8  1  0
  5 12  2  0
  6 12  1  0
  6 17  1  0
  7  8  2  0
  7 10  1  0
  8 11  1  0
  9 10  2  0
  9 14  1  0
 11 14  2  0
 13 15  1  0
 15 16  1  0
  4 19  1  0
  6 20  1  0
 10 21  1  0
 11 22  1  0
 13 23  1  0
 13 24  1  0
 14 25  1  0
 15 26  1  0
 15 27  1  0
 16 28  1  0
 16 29  1  0
 16 30  1  0
 18 31  1  0
 18 32  1  0
 18 33  1  0
M  END
>  <ALOGPS_LOGP>  (1) 
3.22

>  <ALOGPS_LOGS>  (1) 
-4.07

>  <ALOGPS_SOLUBILITY>  (1) 
2.28e-02 g/l

>  <DATABASE_ID>  (1) 
DB00518

>  <DATABASE_NAME>  (1) 
drugbank

>  <DRUGBANK_ID>  (1) 
DB00518

>  <DRUG_GROUPS>  (1) 
approved; vet_approved

>  <EXACT_MASS>  (1) 
265.088497429

>  <FORMULA>  (1) 
C12H15N3O2S

>  <GENERIC_NAME>  (1) 
Albendazole

>  <INCHI_IDENTIFIER>  (1) 
InChI=1S/C12H15N3O2S/c1-3-6-18-8-4-5-9-10(7-8)14-11(13-9)15-12(16)17-2/h4-5,7H,3,6H2,1-2H3,(H2,13,14,15,16)

>  <INCHI_KEY>  (1) 
HXHWSAZORRCQMX-UHFFFAOYSA-N

>  <INTERNATIONAL_BRANDS>  (1) 
Abentel; ABZ; Acure; Adazol; AL; Band; Bandy; Bazole; Ben-A; Benrod; Bentil; Benzol; Benzole; Bevindazol; Biwom; Bruzol; Buxol; Cental; Champs; Ciclopar; Cidazole; Clearworm; Dalben; Despar; Eskazole; Valbazen; Zentel; Zolben

>  <JCHEM_ACCEPTOR_COUNT>  (1) 
3

>  <JCHEM_AVERAGE_POLARIZABILITY>  (1) 
29.299526525940255

>  <JCHEM_BIOAVAILABILITY>  (1) 
1

>  <JCHEM_DONOR_COUNT>  (1) 
2

>  <JCHEM_FORMAL_CHARGE>  (1) 
0

>  <JCHEM_GHOSE_FILTER>  (1) 
1

>  <JCHEM_IUPAC>  (1) 
methyl N-[6-(propylsulfanyl)-1H-1,3-benzodiazol-2-yl]carbamate

>  <JCHEM_LOGP>  (1) 
3.2045250309999993

>  <JCHEM_MDDR_LIKE_RULE>  (1) 
0

>  <JCHEM_NUMBER_OF_RINGS>  (1) 
2

>  <JCHEM_PHYSIOLOGICAL_CHARGE>  (1) 
0

>  <JCHEM_PKA>  (1) 
13.94217505268799

>  <JCHEM_PKA_STRONGEST_ACIDIC>  (1) 
9.513021589528856

>  <JCHEM_PKA_STRONGEST_BASIC>  (1) 
4.274294292080156

>  <JCHEM_POLAR_SURFACE_AREA>  (1) 
67.01

>  <JCHEM_REFRACTIVITY>  (1) 
73.00909999999999

>  <JCHEM_ROTATABLE_BOND_COUNT>  (1) 
5

>  <JCHEM_RULE_OF_FIVE>  (1) 
1

>  <JCHEM_TRADITIONAL_IUPAC>  (1) 
albendazol

>  <JCHEM_VEBER_RULE>  (1) 
0

>  <MOLECULAR_WEIGHT>  (1) 
265.331

>  <PRODUCTS>  (1) 
Albenza

>  <SECONDARY_ACCESSION_NUMBERS>  (1) 
APRD00782

>  <SMILES>  (1) 
CCCSC1=CC2=C(C=C1)N=C(NC(=O)OC)N2

>  <SYNONYMS>  (1) 
(5-(propylthio)-1H-benzimidazol-2-yl)carbamic acid methyl ester; 5-(propylthio)-2-carbomethoxyaminobenzimidazole; Albendazol; Albendazole; Albendazolum; Eskazole; O-methyl N-(5-(propylthio)-2-benzimidazolyl)carbamate; Proftril

$$$$
