
     RDKit          2D

 30 30  0  0  1  0  0  0  0  0999 V2000
   -0.4125   -0.9355    0.0000 C   0  0  0  0  0  0  0  0  0  0  0  0
    1.4289   -0.0000    0.0000 C   0  0  0  0  0  0  0  0  0  0  0  0
    1.4289    0.8250    0.0000 C   0  0  0  0  0  0  0  0  0  0  0  0
    0.0000   -0.0000    0.0000 C   0  0  0  0  0  0  0  0  0  0  0  0
    0.7145   -1.2375    0.0000 C   0  0  0  0  0  0  0  0  0  0  0  0
    0.7145   -0.4125    0.0000 C   0  0  0  0  0  0  0  0  0  0  0  0
    0.7145    1.2375    0.0000 C   0  0  0  0  0  0  0  0  0  0  0  0
    0.0000    0.8250    0.0000 C   0  0  0  0  0  0  0  0  0  0  0  0
    0.4125   -2.3645    0.0000 C   0  0  0  0  0  0  0  0  0  0  0  0
   -0.0000   -1.6500    0.0000 C   0  0  0  0  0  0  0  0  0  0  0  0
   -0.7145   -2.8875    0.0000 N   0  0  0  0  0  0  0  0  0  0  0  0
   -0.7145   -2.0625    0.0000 N   0  0  0  0  0  0  0  0  0  0  0  0
    0.7145    2.0625    0.0000 O   0  0  0  0  0  0  0  0  0  0  0  0
   -0.7145    1.2375    0.0000 O   0  0  0  0  0  0  0  0  0  0  0  0
    1.2375   -2.3645    0.0000 O   0  0  0  0  0  0  0  0  0  0  0  0
   -0.0000   -3.0789    0.0000 O   0  0  0  0  0  0  0  0  0  0  0  0
    0.0000    0.0000    0.0000 H   0  0  0  0  0  0  0  0  0  0  0  0
    0.0000    0.0000    0.0000 H   0  0  0  0  0  0  0  0  0  0  0  0
    0.0000    0.0000    0.0000 H   0  0  0  0  0  0  0  0  0  0  0  0
    0.0000    0.0000    0.0000 H   0  0  0  0  0  0  0  0  0  0  0  0
    0.0000    0.0000    0.0000 H   0  0  0  0  0  0  0  0  0  0  0  0
    0.0000    0.0000    0.0000 H   0  0  0  0  0  0  0  0  0  0  0  0
    0.0000    0.0000    0.0000 H   0  0  0  0  0  0  0  0  0  0  0  0
    0.0000    0.0000    0.0000 H   0  0  0  0  0  0  0  0  0  0  0  0
    0.0000    0.0000    0.0000 H   0  0  0  0  0  0  0  0  0  0  0  0
    0.0000    0.0000    0.0000 H   0  0  0  0  0  0  0  0  0  0  0  0
    0.0000    0.0000    0.0000 H   0  0  0  0  0  0  0  0  0  0  0  0
    0.0000    0.0000    0.0000 H   0  0  0  0  0  0  0  0  0  0  0  0
    0.0000    0.0000    0.0000 H   0  0  0  0  0  0  0  0  0  0  0  0
    0.0000    0.0000    0.0000 H   0  0  0  0  0  0  0  0  0  0  0  0
  3  2  2  0
  6  2  1  0
  6  4  2  0
  6  5  1  0
  7  3  1  0
  8  4  1  0
  8  7  2  0
 10  1  1  6
 10  5  1  0
 10  9  1  0
 10 12  1  0
 12 11  1  0
 13  7  1  0
 14  8  1  0
 15  9  2  0
 16  9  1  0
  1 17  1  0
  1 18  1  0
  1 19  1  0
  2 20  1  0
  3 21  1  0
  4 22  1  0
  5 23  1  0
  5 24  1  0
 11 25  1  0
 11 26  1  0
 12 27  1  0
 13 28  1  0
 14 29  1  0
 16 30  1  0
M  END
>  <ALOGPS_LOGP>  (1) 
-0.16

>  <ALOGPS_LOGS>  (1) 
-1.78

>  <ALOGPS_SOLUBILITY>  (1) 
3.73e+00 g/l

>  <DATABASE_ID>  (1) 
DB00190

>  <DATABASE_NAME>  (1) 
drugbank

>  <DRUGBANK_ID>  (1) 
DB00190

>  <DRUG_GROUPS>  (1) 
approved

>  <EXACT_MASS>  (1) 
226.095356946

>  <FORMULA>  (1) 
C10H14N2O4

>  <GENERIC_NAME>  (1) 
Carbidopa

>  <INCHI_IDENTIFIER>  (1) 
InChI=1S/C10H14N2O4/c1-10(12-11,9(15)16)5-6-2-3-7(13)8(14)4-6/h2-4,12-14H,5,11H2,1H3,(H,15,16)/t10-/m0/s1

>  <INCHI_KEY>  (1) 
TZFNLOMSOLWIDK-JTQLQIEISA-N

>  <JCHEM_ACCEPTOR_COUNT>  (1) 
6

>  <JCHEM_AVERAGE_POLARIZABILITY>  (1) 
22.03311361558027

>  <JCHEM_BIOAVAILABILITY>  (1) 
1

>  <JCHEM_DONOR_COUNT>  (1) 
5

>  <JCHEM_FORMAL_CHARGE>  (1) 
0

>  <JCHEM_GHOSE_FILTER>  (1) 
0

>  <JCHEM_IUPAC>  (1) 
(2S)-3-(3,4-dihydroxyphenyl)-2-hydrazinyl-2-methylpropanoic acid

>  <JCHEM_LOGP>  (1) 
-1.1881937632359745

>  <JCHEM_MDDR_LIKE_RULE>  (1) 
0

>  <JCHEM_NUMBER_OF_RINGS>  (1) 
1

>  <JCHEM_PHYSIOLOGICAL_CHARGE>  (1) 
-1

>  <JCHEM_PKA>  (1) 
9.286504270710413

>  <JCHEM_PKA_STRONGEST_ACIDIC>  (1) 
3.5892224049198567

>  <JCHEM_PKA_STRONGEST_BASIC>  (1) 
5.65429312819232

>  <JCHEM_POLAR_SURFACE_AREA>  (1) 
115.81000000000002

>  <JCHEM_REFRACTIVITY>  (1) 
68.7683

>  <JCHEM_ROTATABLE_BOND_COUNT>  (1) 
4

>  <JCHEM_RULE_OF_FIVE>  (1) 
1

>  <JCHEM_TRADITIONAL_IUPAC>  (1) 
carbidopa

>  <JCHEM_VEBER_RULE>  (1) 
0

>  <MOLECULAR_WEIGHT>  (1) 
226.2292

>  <PRODUCTS>  (1) 
Apo-levocarb - Tab 10mg/100mg; Apo-levocarb - Tab 25mg/250mg; Apo-levocarb CR; Apo-levocarb-tab 25mg/100mg; Carbidopa; Carbidopa Tablets, 25 mg; Carbidopa and Levodopa; Carbidopa and levodopa; Carbidopa, Levodopa and Entacapone; Carbidopa, Levodopa, and Entacapone; Carbidopa, levodopa and entacapone; Dom-levo-carbidopa; Duodopa; Duopa; Lodosyn; Mint-levocarb; Nu-levocarb - Tab 10mg/100mg; Nu-levocarb - Tab 25 Mg/100 mg; Nu-levocarb - Tablets 25 Mg/250 mg; Numient; PMS-levocarb CR; Parcopa; Pro-lecarb-100/10 - Tab; Pro-lecarb-100/25 - Tab; Pro-levocarb - 100/25; Ratio-levodopa/carbidopa; Rytary; Sinemet; Sinemet 100/10; Sinemet 100/25; Sinemet 250/25; Sinemet CR; Sinemet CR 100/25; Sinemet CR 200/50; Stalevo; Teva-levocarbidopa

>  <SALTS>  (1) 
Carbidopa hydrate

>  <SECONDARY_ACCESSION_NUMBERS>  (1) 
APRD00160

>  <SMILES>  (1) 
C[C@@](CC1=CC(O)=C(O)C=C1)(NN)C(O)=O

>  <SYNONYMS>  (1) 
(-)-L-alpha-Hydrazino-3,4-dihydroxy-alpha-methylhydrocinnamic acid monohydrate; (S)-(−)-carbidopa; (S)-carbidopa; (αS)-α-hydrazino-3,4-dihydroxy-α-methylbenzenepropanoic acid; Carbidopum; L-3-(3,4-dihydroxyphenyl)-2-methyl-2-hydrazinopropionic acid; L-α-methyldopahydrazine

$$$$
