802
     RDKit          2D

 62 64  0  0  0  0  0  0  0  0999 V2000
    2.5791    2.4872    0.0000 O   0  0  0  0  0  0  0  0  0  0  0  0
    2.9916    3.2016    0.0000 O   0  0  0  0  0  0  0  0  0  0  0  0
    1.6500   -2.1699    0.0000 O   0  0  0  0  0  0  0  0  0  0  0  0
    3.8166    0.1227    0.0000 N   0  0  0  0  0  0  0  0  0  0  0  0
    4.2291    2.4872    0.0000 N   0  0  0  0  0  0  0  0  0  0  0  0
    3.1022   -1.9399    0.0000 N   0  0  0  0  0  0  0  0  0  0  0  0
    3.7696   -2.4248    0.0000 N   0  0  0  0  0  0  0  0  0  0  0  0
    2.6896   -3.2095    0.0000 N   0  0  0  0  0  0  0  0  0  0  0  0
    3.5147   -3.2095    0.0000 N   0  0  0  0  0  0  0  0  0  0  0  0
    3.8166    1.7727    0.0000 C   0  0  0  0  0  0  0  0  0  0  0  0
    4.5311    1.3602    0.0000 C   0  0  0  0  0  0  0  0  0  0  0  0
    3.1022    1.3602    0.0000 C   0  0  0  0  0  0  0  0  0  0  0  0
    4.5311    0.5352    0.0000 C   0  0  0  0  0  0  0  0  0  0  0  0
    3.1022    0.5352    0.0000 C   0  0  0  0  0  0  0  0  0  0  0  0
    3.4041    2.4872    0.0000 C   0  0  0  0  0  0  0  0  0  0  0  0
    3.8166   -0.7023    0.0000 C   0  0  0  0  0  0  0  0  0  0  0  0
    5.0541    2.4872    0.0000 C   0  0  0  0  0  0  0  0  0  0  0  0
    3.8166    3.2016    0.0000 C   0  0  0  0  0  0  0  0  0  0  0  0
    3.1022   -1.1148    0.0000 C   0  0  0  0  0  0  0  0  0  0  0  0
    4.2291    3.9161    0.0000 C   0  0  0  0  0  0  0  0  0  0  0  0
    5.4667    3.2016    0.0000 C   0  0  0  0  0  0  0  0  0  0  0  0
    5.4667    1.7727    0.0000 C   0  0  0  0  0  0  0  0  0  0  0  0
    2.1666    3.2016    0.0000 C   0  0  0  0  0  0  0  0  0  0  0  0
    3.8166    4.6307    0.0000 C   0  0  0  0  0  0  0  0  0  0  0  0
    6.2917    3.2016    0.0000 C   0  0  0  0  0  0  0  0  0  0  0  0
    6.2917    1.7727    0.0000 C   0  0  0  0  0  0  0  0  0  0  0  0
    2.4347   -2.4248    0.0000 C   0  0  0  0  0  0  0  0  0  0  0  0
    6.7042    2.4872    0.0000 C   0  0  0  0  0  0  0  0  0  0  0  0
    2.2047   -3.8769    0.0000 C   0  0  0  0  0  0  0  0  0  0  0  0
    2.5402   -4.6307    0.0000 C   0  0  0  0  0  0  0  0  0  0  0  0
    0.0000    0.0000    0.0000 H   0  0  0  0  0  0  0  0  0  0  0  0
    0.0000    0.0000    0.0000 H   0  0  0  0  0  0  0  0  0  0  0  0
    0.0000    0.0000    0.0000 H   0  0  0  0  0  0  0  0  0  0  0  0
    0.0000    0.0000    0.0000 H   0  0  0  0  0  0  0  0  0  0  0  0
    0.0000    0.0000    0.0000 H   0  0  0  0  0  0  0  0  0  0  0  0
    0.0000    0.0000    0.0000 H   0  0  0  0  0  0  0  0  0  0  0  0
    0.0000    0.0000    0.0000 H   0  0  0  0  0  0  0  0  0  0  0  0
    0.0000    0.0000    0.0000 H   0  0  0  0  0  0  0  0  0  0  0  0
    0.0000    0.0000    0.0000 H   0  0  0  0  0  0  0  0  0  0  0  0
    0.0000    0.0000    0.0000 H   0  0  0  0  0  0  0  0  0  0  0  0
    0.0000    0.0000    0.0000 H   0  0  0  0  0  0  0  0  0  0  0  0
    0.0000    0.0000    0.0000 H   0  0  0  0  0  0  0  0  0  0  0  0
    0.0000    0.0000    0.0000 H   0  0  0  0  0  0  0  0  0  0  0  0
    0.0000    0.0000    0.0000 H   0  0  0  0  0  0  0  0  0  0  0  0
    0.0000    0.0000    0.0000 H   0  0  0  0  0  0  0  0  0  0  0  0
    0.0000    0.0000    0.0000 H   0  0  0  0  0  0  0  0  0  0  0  0
    0.0000    0.0000    0.0000 H   0  0  0  0  0  0  0  0  0  0  0  0
    0.0000    0.0000    0.0000 H   0  0  0  0  0  0  0  0  0  0  0  0
    0.0000    0.0000    0.0000 H   0  0  0  0  0  0  0  0  0  0  0  0
    0.0000    0.0000    0.0000 H   0  0  0  0  0  0  0  0  0  0  0  0
    0.0000    0.0000    0.0000 H   0  0  0  0  0  0  0  0  0  0  0  0
    0.0000    0.0000    0.0000 H   0  0  0  0  0  0  0  0  0  0  0  0
    0.0000    0.0000    0.0000 H   0  0  0  0  0  0  0  0  0  0  0  0
    0.0000    0.0000    0.0000 H   0  0  0  0  0  0  0  0  0  0  0  0
    0.0000    0.0000    0.0000 H   0  0  0  0  0  0  0  0  0  0  0  0
    0.0000    0.0000    0.0000 H   0  0  0  0  0  0  0  0  0  0  0  0
    0.0000    0.0000    0.0000 H   0  0  0  0  0  0  0  0  0  0  0  0
    0.0000    0.0000    0.0000 H   0  0  0  0  0  0  0  0  0  0  0  0
    0.0000    0.0000    0.0000 H   0  0  0  0  0  0  0  0  0  0  0  0
    0.0000    0.0000    0.0000 H   0  0  0  0  0  0  0  0  0  0  0  0
    0.0000    0.0000    0.0000 H   0  0  0  0  0  0  0  0  0  0  0  0
    0.0000    0.0000    0.0000 H   0  0  0  0  0  0  0  0  0  0  0  0
  1 15  1  0
  1 23  1  0
  2 18  2  0
  3 27  2  0
  4 13  1  0
  4 14  1  0
  4 16  1  0
  5 10  1  0
  5 17  1  0
  5 18  1  0
  6  7  1  0
  6 19  1  0
  6 27  1  0
  7  9  2  0
  8  9  1  0
  8 27  1  0
  8 29  1  0
 10 11  1  0
 10 12  1  0
 10 15  1  0
 11 13  1  0
 12 14  1  0
 16 19  1  0
 17 21  2  0
 17 22  1  0
 18 20  1  0
 20 24  1  0
 21 25  1  0
 22 26  2  0
 25 28  2  0
 26 28  1  0
 29 30  1  0
 11 31  1  0
 11 32  1  0
 12 33  1  0
 12 34  1  0
 13 35  1  0
 13 36  1  0
 14 37  1  0
 14 38  1  0
 15 39  1  0
 15 40  1  0
 16 41  1  0
 16 42  1  0
 19 43  1  0
 19 44  1  0
 20 45  1  0
 20 46  1  0
 21 47  1  0
 22 48  1  0
 23 49  1  0
 23 50  1  0
 23 51  1  0
 24 52  1  0
 24 53  1  0
 24 54  1  0
 25 55  1  0
 26 56  1  0
 28 57  1  0
 29 58  1  0
 29 59  1  0
 30 60  1  0
 30 61  1  0
 30 62  1  0
M  END
>  <ALOGPS_LOGP>  (1) 
2.20

>  <ALOGPS_LOGS>  (1) 
-3.22

>  <ALOGPS_SOLUBILITY>  (1) 
2.52e-01 g/l

>  <DATABASE_ID>  (1) 
DB00802

>  <DATABASE_NAME>  (1) 
drugbank

>  <DRUGBANK_ID>  (1) 
DB00802

>  <DRUG_GROUPS>  (1) 
approved; illicit

>  <EXACT_MASS>  (1) 
416.25358892

>  <FORMULA>  (1) 
C21H32N6O3

>  <GENERIC_NAME>  (1) 
Alfentanil

>  <INCHI_IDENTIFIER>  (1) 
InChI=1S/C21H32N6O3/c1-4-19(28)27(18-9-7-6-8-10-18)21(17-30-3)11-13-24(14-12-21)15-16-26-20(29)25(5-2)22-23-26/h6-10H,4-5,11-17H2,1-3H3

>  <INCHI_KEY>  (1) 
IDBPHNDTYPBSNI-UHFFFAOYSA-N

>  <INTERNATIONAL_BRANDS>  (1) 
Rapifen

>  <JCHEM_ACCEPTOR_COUNT>  (1) 
6

>  <JCHEM_AVERAGE_POLARIZABILITY>  (1) 
45.56566625658037

>  <JCHEM_BIOAVAILABILITY>  (1) 
1

>  <JCHEM_DONOR_COUNT>  (1) 
0

>  <JCHEM_FORMAL_CHARGE>  (1) 
0

>  <JCHEM_GHOSE_FILTER>  (1) 
1

>  <JCHEM_IUPAC>  (1) 
N-{1-[2-(4-ethyl-5-oxo-4,5-dihydro-1H-1,2,3,4-tetrazol-1-yl)ethyl]-4-(methoxymethyl)piperidin-4-yl}-N-phenylpropanamide

>  <JCHEM_LOGP>  (1) 
2.8073737583333327

>  <JCHEM_MDDR_LIKE_RULE>  (1) 
1

>  <JCHEM_NUMBER_OF_RINGS>  (1) 
3

>  <JCHEM_PHYSIOLOGICAL_CHARGE>  (1) 
1

>  <JCHEM_PKA_STRONGEST_BASIC>  (1) 
7.504330578677483

>  <JCHEM_POLAR_SURFACE_AREA>  (1) 
81.05000000000001

>  <JCHEM_REFRACTIVITY>  (1) 
118.59200000000001

>  <JCHEM_ROTATABLE_BOND_COUNT>  (1) 
9

>  <JCHEM_RULE_OF_FIVE>  (1) 
1

>  <JCHEM_TRADITIONAL_IUPAC>  (1) 
alfentanil

>  <JCHEM_VEBER_RULE>  (1) 
0

>  <MOLECULAR_WEIGHT>  (1) 
416.5172

>  <PRODUCTS>  (1) 
Alfenta Inj 500mcg/ml; Alfentanil; Alfentanil Hydrochloride; Alfentanil Injection USP

>  <SALTS>  (1) 
Alfentanil hydrochloride

>  <SECONDARY_ACCESSION_NUMBERS>  (1) 
APRD00726

>  <SMILES>  (1) 
CCN1N=NN(CCN2CCC(COC)(CC2)N(C(=O)CC)C2=CC=CC=C2)C1=O

>  <SYNONYMS>  (1) 
Alfentanilum; Alfentanyl

$$$$
