
     RDKit          2D

 26 27  0  0  1  0  0  0  0  0999 V2000
   10.6821   -8.1129    0.0000 N   0  0  0  0  0  0  0  0  0  0  0  0
   10.0068   -8.5842    0.0000 C   0  0  0  0  0  0  0  0  0  0  0  0
    9.2541   -8.2465    0.0000 C   0  0  0  0  0  0  0  0  0  0  0  0
    8.5471   -7.0119    0.0000 N   0  0  0  0  0  0  0  0  0  0  0  0
    9.2541   -7.4305    0.0000 C   0  0  0  0  0  0  0  0  0  0  0  0
   11.3504   -8.5771    0.0000 C   0  0  0  0  0  0  0  0  0  0  0  0
   10.6821   -7.2722    0.0000 C   0  0  0  0  0  0  0  0  0  0  0  0
   10.2741   -9.3686    0.0000 C   0  0  0  0  0  0  0  0  0  0  0  0
   11.1077   -9.3686    0.0000 C   0  0  0  0  0  0  0  0  0  0  0  0
    8.5471   -8.6546    0.0000 C   0  0  0  0  0  0  0  0  0  0  0  0
    7.8330   -7.4199    0.0000 C   0  0  0  0  0  0  0  0  0  0  0  0
    7.8330   -8.2465    0.0000 C   0  0  0  0  0  0  0  0  0  0  0  0
    0.0000    0.0000    0.0000 H   0  0  0  0  0  0  0  0  0  0  0  0
    0.0000    0.0000    0.0000 H   0  0  0  0  0  0  0  0  0  0  0  0
    0.0000    0.0000    0.0000 H   0  0  0  0  0  0  0  0  0  0  0  0
    0.0000    0.0000    0.0000 H   0  0  0  0  0  0  0  0  0  0  0  0
    0.0000    0.0000    0.0000 H   0  0  0  0  0  0  0  0  0  0  0  0
    0.0000    0.0000    0.0000 H   0  0  0  0  0  0  0  0  0  0  0  0
    0.0000    0.0000    0.0000 H   0  0  0  0  0  0  0  0  0  0  0  0
    0.0000    0.0000    0.0000 H   0  0  0  0  0  0  0  0  0  0  0  0
    0.0000    0.0000    0.0000 H   0  0  0  0  0  0  0  0  0  0  0  0
    0.0000    0.0000    0.0000 H   0  0  0  0  0  0  0  0  0  0  0  0
    0.0000    0.0000    0.0000 H   0  0  0  0  0  0  0  0  0  0  0  0
    0.0000    0.0000    0.0000 H   0  0  0  0  0  0  0  0  0  0  0  0
    0.0000    0.0000    0.0000 H   0  0  0  0  0  0  0  0  0  0  0  0
    0.0000    0.0000    0.0000 H   0  0  0  0  0  0  0  0  0  0  0  0
  2  1  1  0
  6  1  1  0
  7  1  1  0
  2  3  1  1
  8  2  1  0
  5  3  1  0
 10  3  2  0
  5  4  2  0
 11  4  1  0
  9  6  1  0
  9  8  1  0
 12 10  1  0
 12 11  2  0
  2 13  1  0
  5 14  1  0
  6 15  1  0
  6 16  1  0
  7 17  1  0
  7 18  1  0
  7 19  1  0
  8 20  1  0
  8 21  1  0
  9 22  1  0
  9 23  1  0
 10 24  1  0
 11 25  1  0
 12 26  1  0
M  END
>  <ALOGPS_LOGP>  (1) 
0.87

>  <ALOGPS_LOGS>  (1) 
-0.24

>  <ALOGPS_SOLUBILITY>  (1) 
9.33e+01 g/l

>  <DATABASE_ID>  (1) 
DB00184

>  <DATABASE_NAME>  (1) 
drugbank

>  <DRUGBANK_ID>  (1) 
DB00184

>  <DRUG_GROUPS>  (1) 
approved

>  <EXACT_MASS>  (1) 
162.115698458

>  <FORMULA>  (1) 
C10H14N2

>  <GENERIC_NAME>  (1) 
Nicotine

>  <INCHI_IDENTIFIER>  (1) 
InChI=1S/C10H14N2/c1-12-7-3-5-10(12)9-4-2-6-11-8-9/h2,4,6,8,10H,3,5,7H2,1H3/t10-/m0/s1

>  <INCHI_KEY>  (1) 
SNICXCGAKADSCV-JTQLQIEISA-N

>  <INTERNATIONAL_BRANDS>  (1) 
Habitrol; Nicoderm

>  <JCHEM_ACCEPTOR_COUNT>  (1) 
2

>  <JCHEM_AVERAGE_POLARIZABILITY>  (1) 
18.58909809719573

>  <JCHEM_BIOAVAILABILITY>  (1) 
1

>  <JCHEM_DONOR_COUNT>  (1) 
0

>  <JCHEM_FORMAL_CHARGE>  (1) 
0

>  <JCHEM_GHOSE_FILTER>  (1) 
1

>  <JCHEM_IUPAC>  (1) 
3-[(2S)-1-methylpyrrolidin-2-yl]pyridine

>  <JCHEM_LOGP>  (1) 
1.1625346926666664

>  <JCHEM_MDDR_LIKE_RULE>  (1) 
0

>  <JCHEM_NUMBER_OF_RINGS>  (1) 
2

>  <JCHEM_PHYSIOLOGICAL_CHARGE>  (1) 
1

>  <JCHEM_PKA_STRONGEST_BASIC>  (1) 
8.861872125269352

>  <JCHEM_POLAR_SURFACE_AREA>  (1) 
16.130000000000003

>  <JCHEM_REFRACTIVITY>  (1) 
49.655

>  <JCHEM_ROTATABLE_BOND_COUNT>  (1) 
1

>  <JCHEM_RULE_OF_FIVE>  (1) 
1

>  <JCHEM_TRADITIONAL_IUPAC>  (1) 
nicoderm CQ

>  <JCHEM_VEBER_RULE>  (1) 
1

>  <MOLECULAR_WEIGHT>  (1) 
162.2316

>  <PRODUCTS>  (1) 
American Fare Nicotine Transdermal System; Basic Care Nicotine; Basic Care nicotine; Berkley and Jensen NICOTINE; Berkley and Jensen Nicotine; Berkley and Jensen Nicotine Polacrilex; Berkley and Jensen nicotine; Care One Nicotine; CareOne Mini Nicotine Polacrilex; CareOne Nicotine; CareOne Nicotine Transdermal System Step 1; CareOne Nicotine Transdermal System Step 2; CareOne Nicotine Transdermal System Step 3; CareOne nicotine; Careone Nicotine; Careone Nicotine Polacrilex; DG Health nicotine; Equaline Nicotine; Equaline nicotine; Equate Nicotine; Equate nicotine; Exchange Select Nicotine Transdermal System Step 3; Good Neighbor Pharmacy Nicotine; Good Neighbor Pharmacy Nicotine Mini; Good Sense Nicotine; Good Sense Nicotine Mint; Good Sense Nicotine Stop Smoking Aid; Habitrol Patch Nicotine Transdermal System, Step 1; Habitrol Patch Nicotine Transdermal System, Step 2; Habitrol Patch Nicotine Transdermal System, Step 3; Harris Teeter Nicotine; Health Mart Nicotine; Health Mart Nicotine Polacrilex; Health Mart nicotine polacrilex; Healthmart Nicotine Transdermal System Step 1; Healthmart Nicotine Transdermal System Step 2; Healthmart Nicotine Transdermal System Step 3; Healthy Accents Nicotine; Humana Pharmacy Nicotine; In Control Nicotine; In control nicotine; Kirkland Signature Quit 2; Kirkland Signature Quit 4; Kroger Nicotine Transdermal System Step 1; Kroger Nicotine Transdermal System Step 2; Kroger Nicotine Transdermal System Step 3; Leader Nicotine; Leader Nicotine Transdermal System Step 1; Leader Nicotine Transdermal System Step 2; Leader Nicotine Transdermal System Step 3; Meijer NICOTINE TRANSDERMAL SYSTEM STEP 2; Meijer NICOTINE TRANSDERMAL SYSTEM Step 1; Meijer NICOTINE TRANSDERMAL SYSTEM Step 3; Members Mark Mini Nicotine; Members Mark Nicotine; Mini Nicotine; Nicoderm Cq; Nicoderm Trd 114mg Nicotine/21; Nicoderm Trd 36mg Nicotine/7 Sqcm Patch; Nicoderm Trd 78mg Nicotine/14; Nicorelief; Nicorette; Nicorette Cinnamon Surge; Nicorette Fresh Mint; Nicorette Fruit Chill; Nicorette Gum 2mg; Nicorette Invisipatch; Nicorette Mint; Nicorette Original; Nicorette Plus 4mg; Nicorette Spearmint Burst; Nicorette White Ice Mint; Nicotine; Nicotine COATED ice mint; Nicotine Coated Fruit Flavor; Nicotine Coated Mint; Nicotine Gum; Nicotine Mini; Nicotine Mint Flavor; Nicotine Original; Nicotine Polacrilex; Nicotine Polacrilex Coated Fruit; Nicotine Polacrilex Coated Mint; Nicotine Polacrilex Origianl Flavor; Nicotine Polacrilex Original Flavor; Nicotine Polacrilex Stop Smoking Aid; Nicotine Polacrilex, Coated Fruit Flavor; Nicotine Polacrilex, Coated Mint Flavor; Nicotine Polacrilex, Original; Nicotine Stop Smoking Aid; Nicotine Tartrate; Nicotine Transdermal System; Nicotine Transdermal System Patch Kit; Nicotine Transdermal System Step 1; Nicotine Transdermal System Step 2; Nicotine Transdermal System Step 3; Nicotine UN1654; Nicotine mini; Nicotine polacrilex; Nicotine transdermal system; Nicotrol; Nicotrol (Professional Sample); Nictoine Gum; Preferred Plus Nicotine; Preferred Plus Nicotine Polacrilex Gum, Original Flavor; Rexall Nicotine; Rite Aid Nicotine Transdermal System Step 1; Rite Aid Nicotine Transdermal System Step 2; Rite Aid Nicotine Transdermal System Step 3; Rugby Nicotine; Rugby Nicotine Polacrilex Gum, Coated Cinnamon Flavor; Rugby Nicotine Polacrilex Gum, Coated Fruit Flavor; Rugby Nicotine Polacrilex Gum, Coated Mint Flavor; Rugby Nicotine Polacrilex Gum, Mint Flavor; Rugby Nicotine Polacrilex Gum, Original Flavor; Safeway Nicotine Transdermal System Step 1; Safeway Nicotine Transdermal System Step 2; Safeway Nicotine Transdermal System Step 3; Signature Care Nicotine; Simply Right Nicotine; Smart Sense Nicotine; Smart Sense Nicotine Mint; Smart Sense Nicotine Polacrilex; Stop Smoking Aid; Stop Smoking Aid Nicotine; Sunmark Nicotine; Sunmark Nicotine Transdermal System Step 1; Sunmark Nicotine Transdermal System Step 2; Sunmark Nicotine Transdermal System Step 3; TopCare Nicotine; Topcare Nicotine; Topcare Nicotine Gum; Topcare Nicotine Polacrilex; Topcare nicotine; Topcare nicotine stop smoking aid; Tru Relief Nicotine; Up and Up Nicotine; Up and Up Nicotine Polacrilex; Up and Up nicotine; Zonnic; Zonnic Nicotine; Zonnic Nicotine Mini; Zonnic Nicotine Polacrilex; equate Nicotine; in control Nicotine; members mark Nicotine

>  <SALTS>  (1) 
Nicotine bitartrate; Nicotine bitartrate dihydrate

>  <SECONDARY_ACCESSION_NUMBERS>  (1) 
APRD00200; EXPT02315; DB09463; DB11303

>  <SMILES>  (1) 
CN1CCC[C@H]1C1=CN=CC=C1

>  <SYNONYMS>  (1) 
(−)-nicotine; (S)-(−)-nicotine; (S)-3-(1-methylpyrrolidin-2-yl)pyridine; (S)-3-(N-methylpyrrolidin-2-yl)pyridine; (S)-Nicotine; 3-(2-(N-methylpyrrolidinyl))pyridine; 3-(N-methylpyrollidino)pyridine; L(−)-nicotine; Nicotine betadex; Nicotine polacrilex

$$$$
