440
     RDKit          2D

 39 40  0  0  0  0  0  0  0  0999 V2000
    6.3799    1.6995    0.0000 O   0  0  0  0  0  0  0  0  0  0  0  0
    3.5220    1.6995    0.0000 O   0  0  0  0  0  0  0  0  0  0  0  0
    4.9509    2.5246    0.0000 O   0  0  0  0  0  0  0  0  0  0  0  0
    3.5220   -2.4256    0.0000 N   0  0  0  0  0  0  0  0  0  0  0  0
    2.8075   -1.1880    0.0000 N   0  0  0  0  0  0  0  0  0  0  0  0
    4.9509   -2.4256    0.0000 N   0  0  0  0  0  0  0  0  0  0  0  0
    2.0930   -2.4256    0.0000 N   0  0  0  0  0  0  0  0  0  0  0  0
    4.9509   -0.7755    0.0000 C   0  0  0  0  0  0  0  0  0  0  0  0
    4.9509    0.0495    0.0000 C   0  0  0  0  0  0  0  0  0  0  0  0
    4.2365   -1.1880    0.0000 C   0  0  0  0  0  0  0  0  0  0  0  0
    4.2365    0.4620    0.0000 C   0  0  0  0  0  0  0  0  0  0  0  0
    5.6655    0.4620    0.0000 C   0  0  0  0  0  0  0  0  0  0  0  0
    5.6655    1.2870    0.0000 C   0  0  0  0  0  0  0  0  0  0  0  0
    4.2365    1.2870    0.0000 C   0  0  0  0  0  0  0  0  0  0  0  0
    4.9509    1.6995    0.0000 C   0  0  0  0  0  0  0  0  0  0  0  0
    4.2365   -2.0130    0.0000 C   0  0  0  0  0  0  0  0  0  0  0  0
    3.5220   -0.7755    0.0000 C   0  0  0  0  0  0  0  0  0  0  0  0
    2.8075   -2.0130    0.0000 C   0  0  0  0  0  0  0  0  0  0  0  0
    7.0944    1.2870    0.0000 C   0  0  0  0  0  0  0  0  0  0  0  0
    2.8075    1.2870    0.0000 C   0  0  0  0  0  0  0  0  0  0  0  0
    5.6655    2.9371    0.0000 C   0  0  0  0  0  0  0  0  0  0  0  0
    0.0000    0.0000    0.0000 H   0  0  0  0  0  0  0  0  0  0  0  0
    0.0000    0.0000    0.0000 H   0  0  0  0  0  0  0  0  0  0  0  0
    0.0000    0.0000    0.0000 H   0  0  0  0  0  0  0  0  0  0  0  0
    0.0000    0.0000    0.0000 H   0  0  0  0  0  0  0  0  0  0  0  0
    0.0000    0.0000    0.0000 H   0  0  0  0  0  0  0  0  0  0  0  0
    0.0000    0.0000    0.0000 H   0  0  0  0  0  0  0  0  0  0  0  0
    0.0000    0.0000    0.0000 H   0  0  0  0  0  0  0  0  0  0  0  0
    0.0000    0.0000    0.0000 H   0  0  0  0  0  0  0  0  0  0  0  0
    0.0000    0.0000    0.0000 H   0  0  0  0  0  0  0  0  0  0  0  0
    0.0000    0.0000    0.0000 H   0  0  0  0  0  0  0  0  0  0  0  0
    0.0000    0.0000    0.0000 H   0  0  0  0  0  0  0  0  0  0  0  0
    0.0000    0.0000    0.0000 H   0  0  0  0  0  0  0  0  0  0  0  0
    0.0000    0.0000    0.0000 H   0  0  0  0  0  0  0  0  0  0  0  0
    0.0000    0.0000    0.0000 H   0  0  0  0  0  0  0  0  0  0  0  0
    0.0000    0.0000    0.0000 H   0  0  0  0  0  0  0  0  0  0  0  0
    0.0000    0.0000    0.0000 H   0  0  0  0  0  0  0  0  0  0  0  0
    0.0000    0.0000    0.0000 H   0  0  0  0  0  0  0  0  0  0  0  0
    0.0000    0.0000    0.0000 H   0  0  0  0  0  0  0  0  0  0  0  0
  1 13  1  0
  1 19  1  0
  2 14  1  0
  2 20  1  0
  3 15  1  0
  3 21  1  0
  4 16  2  0
  4 18  1  0
  5 17  1  0
  5 18  2  0
  6 16  1  0
  7 18  1  0
  8  9  1  0
  8 10  1  0
  9 11  2  0
  9 12  1  0
 10 16  1  0
 10 17  2  0
 11 14  1  0
 12 13  2  0
 13 15  1  0
 14 15  2  0
  6 22  1  0
  6 23  1  0
  7 24  1  0
  7 25  1  0
  8 26  1  0
  8 27  1  0
 11 28  1  0
 12 29  1  0
 17 30  1  0
 19 31  1  0
 19 32  1  0
 19 33  1  0
 20 34  1  0
 20 35  1  0
 20 36  1  0
 21 37  1  0
 21 38  1  0
 21 39  1  0
M  END
>  <ALOGPS_LOGP>  (1) 
1.26

>  <ALOGPS_LOGS>  (1) 
-2.67

>  <ALOGPS_SOLUBILITY>  (1) 
6.15e-01 g/l

>  <DATABASE_ID>  (1) 
DB00440

>  <DATABASE_NAME>  (1) 
drugbank

>  <DRUGBANK_ID>  (1) 
DB00440

>  <DRUG_GROUPS>  (1) 
approved; vet_approved

>  <EXACT_MASS>  (1) 
290.137890462

>  <FORMULA>  (1) 
C14H18N4O3

>  <GENERIC_NAME>  (1) 
Trimethoprim

>  <INCHI_IDENTIFIER>  (1) 
InChI=1S/C14H18N4O3/c1-19-10-5-8(6-11(20-2)12(10)21-3)4-9-7-17-14(16)18-13(9)15/h5-7H,4H2,1-3H3,(H4,15,16,17,18)

>  <INCHI_KEY>  (1) 
IEDVJHCEMCRBQM-UHFFFAOYSA-N

>  <INTERNATIONAL_BRANDS>  (1) 
Alprim; Catin; Eumi; Inflamnil; Lannacher; Lariago; Meprim; Metipine; Monotrim; Motrim; Proloprim; Trimpex; Triprim

>  <JCHEM_ACCEPTOR_COUNT>  (1) 
7

>  <JCHEM_AVERAGE_POLARIZABILITY>  (1) 
29.713702230056416

>  <JCHEM_BIOAVAILABILITY>  (1) 
1

>  <JCHEM_DONOR_COUNT>  (1) 
2

>  <JCHEM_FORMAL_CHARGE>  (1) 
0

>  <JCHEM_GHOSE_FILTER>  (1) 
1

>  <JCHEM_IUPAC>  (1) 
5-[(3,4,5-trimethoxyphenyl)methyl]pyrimidine-2,4-diamine

>  <JCHEM_LOGP>  (1) 
1.2839073299999995

>  <JCHEM_MDDR_LIKE_RULE>  (1) 
0

>  <JCHEM_NUMBER_OF_RINGS>  (1) 
2

>  <JCHEM_PHYSIOLOGICAL_CHARGE>  (1) 
1

>  <JCHEM_PKA_STRONGEST_ACIDIC>  (1) 
17.33440529178666

>  <JCHEM_PKA_STRONGEST_BASIC>  (1) 
7.156319189418069

>  <JCHEM_POLAR_SURFACE_AREA>  (1) 
105.50999999999999

>  <JCHEM_REFRACTIVITY>  (1) 
81.5094

>  <JCHEM_ROTATABLE_BOND_COUNT>  (1) 
5

>  <JCHEM_RULE_OF_FIVE>  (1) 
1

>  <JCHEM_TRADITIONAL_IUPAC>  (1) 
trimethoprim

>  <JCHEM_VEBER_RULE>  (1) 
0

>  <MOLECULAR_WEIGHT>  (1) 
290.3177

>  <PRODUCTS>  (1) 
Apo Sulfatrim DS Tab; Apo Sulfatrim Pediatric; Apo Sulfatrim Tab; Apo-sulfatrim Oral Suspension; Bactrim; Bactrim DS; Bactrim DS Roche Tab; Bactrim Roche Inj; Bactrim Roche Suspension Paediatric; Bactrim Roche Tab; Coptin Oral Suspension; Coptin Tab; Nu-cotrimox Sus 40/8mg/ml; Nu-cotrimox Tab 400/80mg; Nu-cotrimox-DS Tab 800/160mg; PMS-polytrimethoprim; POLYMYXIN B SULFATE and TRIMETHOPRIM SULFATE; Polymyxin B Sulfate and Trimethoprim; Polymyxin B Sulfate and Trimethoprim Sulfate; Polytrim; Polytrim Ophthalmic Solution; PrimSol; Primsol; Proloprim 200 Tab 200mg; Proloprim Tab 100mg; Protrin Df Tab; Protrin Tab; Riva-sep DS; Roubac Tab 160/800; Roubac Tab 80/400; SULFAMETHOXAZOLE and TRIMETHOPRIM; Sandoz Polytrimethoprim; Septra; Septra DS Tablets; Septra Injection; Septra Pediatric Suspension; Sulfamethoxazole and Trimethoprim; Sulfamethoxazole and Trimethoprim (Double Strength); Sulfamethoxazole and Trimethoprim DS; Sulfamethoxazole and Trimethoprim Double Strength; Sulfamethoxazole and Trimethoprim Tablets; Sulfatrim; TRIMPEX trimethoprim hydrochloride; Teva-trimel; Teva-trimel DS; Trimethoprim; Trimethoprim Tablets; Trimethoprim sulfate and Polymyxin B sulfate; Trisulfa DS Tab; Trisulfa S Suspension; Trisulfa Tab

>  <SALTS>  (1) 
Trimethoprim hydrochloride; Trimethoprim sulfate

>  <SECONDARY_ACCESSION_NUMBERS>  (1) 
APRD00103

>  <SMILES>  (1) 
COC1=CC(CC2=CN=C(N)N=C2N)=CC(OC)=C1OC

>  <SYNONYMS>  (1) 
Trimethoprim; Trim√©thoprime; Trimethoprimum; Trimetoprima

$$$$
