528
     RDKit          2D

 86 89  0  0  1  0  0  0  0  0999 V2000
    8.0804   -0.9818    0.0000 O   0  0  0  0  0  0  0  0  0  0  0  0
    8.7949    0.2558    0.0000 O   0  0  0  0  0  0  0  0  0  0  0  0
   12.3674   -0.9818    0.0000 O   0  0  0  0  0  0  0  0  0  0  0  0
   11.6529    0.2558    0.0000 O   0  0  0  0  0  0  0  0  0  0  0  0
   11.6529    2.7308    0.0000 O   0  0  0  0  0  0  0  0  0  0  0  0
   12.3674    1.4933    0.0000 O   0  0  0  0  0  0  0  0  0  0  0  0
    5.9370   -0.5693    0.0000 N   0  0  0  0  0  0  0  0  0  0  0  0
   10.2239   -2.2193    0.0000 N   0  0  0  0  0  0  0  0  0  0  0  0
   11.6529    1.9058    0.0000 N   0  0  0  0  0  0  0  0  0  0  0  0
    7.3659   -0.5693    0.0000 C   0  0  0  0  0  0  0  0  0  0  0  0
    6.6515   -0.1568    0.0000 C   0  0  0  0  0  0  0  0  0  0  0  0
    5.2224   -0.1568    0.0000 C   0  0  0  0  0  0  0  0  0  0  0  0
    4.5080   -0.5693    0.0000 C   0  0  0  0  0  0  0  0  0  0  0  0
    3.7935   -0.1568    0.0000 C   0  0  0  0  0  0  0  0  0  0  0  0
   10.2239   -0.5693    0.0000 C   0  0  0  0  0  0  0  0  0  0  0  0
    7.7784    0.1452    0.0000 C   0  0  0  0  0  0  0  0  0  0  0  0
    6.9534   -1.2837    0.0000 C   0  0  0  0  0  0  0  0  0  0  0  0
    9.5094   -0.9818    0.0000 C   0  0  0  0  0  0  0  0  0  0  0  0
    5.9370   -1.3943    0.0000 C   0  0  0  0  0  0  0  0  0  0  0  0
    3.0791   -0.5693    0.0000 C   0  0  0  0  0  0  0  0  0  0  0  0
    3.7935    0.6683    0.0000 C   0  0  0  0  0  0  0  0  0  0  0  0
   10.9383   -0.9818    0.0000 C   0  0  0  0  0  0  0  0  0  0  0  0
    8.7949   -0.5693    0.0000 C   0  0  0  0  0  0  0  0  0  0  0  0
    9.5094   -1.8068    0.0000 C   0  0  0  0  0  0  0  0  0  0  0  0
   10.2239    0.2558    0.0000 C   0  0  0  0  0  0  0  0  0  0  0  0
   10.9383   -1.8068    0.0000 C   0  0  0  0  0  0  0  0  0  0  0  0
    3.0791   -1.3943    0.0000 C   0  0  0  0  0  0  0  0  0  0  0  0
    3.0791    1.0808    0.0000 C   0  0  0  0  0  0  0  0  0  0  0  0
    2.3645   -0.1568    0.0000 C   0  0  0  0  0  0  0  0  0  0  0  0
    4.5080    1.0808    0.0000 C   0  0  0  0  0  0  0  0  0  0  0  0
    8.7949   -2.2193    0.0000 C   0  0  0  0  0  0  0  0  0  0  0  0
   10.9383    0.6683    0.0000 C   0  0  0  0  0  0  0  0  0  0  0  0
    9.5094    0.6683    0.0000 C   0  0  0  0  0  0  0  0  0  0  0  0
   11.6529   -0.5693    0.0000 C   0  0  0  0  0  0  0  0  0  0  0  0
   11.6529   -2.2193    0.0000 C   0  0  0  0  0  0  0  0  0  0  0  0
   10.9383    1.4933    0.0000 C   0  0  0  0  0  0  0  0  0  0  0  0
    2.3645   -1.8068    0.0000 C   0  0  0  0  0  0  0  0  0  0  0  0
    3.0791    1.9058    0.0000 C   0  0  0  0  0  0  0  0  0  0  0  0
    1.6500   -0.5693    0.0000 C   0  0  0  0  0  0  0  0  0  0  0  0
    4.5080    1.9058    0.0000 C   0  0  0  0  0  0  0  0  0  0  0  0
    9.5094    1.4933    0.0000 C   0  0  0  0  0  0  0  0  0  0  0  0
    1.6500   -1.3943    0.0000 C   0  0  0  0  0  0  0  0  0  0  0  0
    3.7935    2.3183    0.0000 C   0  0  0  0  0  0  0  0  0  0  0  0
   10.2239    1.9058    0.0000 C   0  0  0  0  0  0  0  0  0  0  0  0
   13.0818   -0.5693    0.0000 C   0  0  0  0  0  0  0  0  0  0  0  0
    0.0000    0.0000    0.0000 H   0  0  0  0  0  0  0  0  0  0  0  0
    0.0000    0.0000    0.0000 H   0  0  0  0  0  0  0  0  0  0  0  0
    0.0000    0.0000    0.0000 H   0  0  0  0  0  0  0  0  0  0  0  0
    0.0000    0.0000    0.0000 H   0  0  0  0  0  0  0  0  0  0  0  0
    0.0000    0.0000    0.0000 H   0  0  0  0  0  0  0  0  0  0  0  0
    0.0000    0.0000    0.0000 H   0  0  0  0  0  0  0  0  0  0  0  0
    0.0000    0.0000    0.0000 H   0  0  0  0  0  0  0  0  0  0  0  0
    0.0000    0.0000    0.0000 H   0  0  0  0  0  0  0  0  0  0  0  0
    0.0000    0.0000    0.0000 H   0  0  0  0  0  0  0  0  0  0  0  0
    0.0000    0.0000    0.0000 H   0  0  0  0  0  0  0  0  0  0  0  0
    0.0000    0.0000    0.0000 H   0  0  0  0  0  0  0  0  0  0  0  0
    0.0000    0.0000    0.0000 H   0  0  0  0  0  0  0  0  0  0  0  0
    0.0000    0.0000    0.0000 H   0  0  0  0  0  0  0  0  0  0  0  0
    0.0000    0.0000    0.0000 H   0  0  0  0  0  0  0  0  0  0  0  0
    0.0000    0.0000    0.0000 H   0  0  0  0  0  0  0  0  0  0  0  0
    0.0000    0.0000    0.0000 H   0  0  0  0  0  0  0  0  0  0  0  0
    0.0000    0.0000    0.0000 H   0  0  0  0  0  0  0  0  0  0  0  0
    0.0000    0.0000    0.0000 H   0  0  0  0  0  0  0  0  0  0  0  0
    0.0000    0.0000    0.0000 H   0  0  0  0  0  0  0  0  0  0  0  0
    0.0000    0.0000    0.0000 H   0  0  0  0  0  0  0  0  0  0  0  0
    0.0000    0.0000    0.0000 H   0  0  0  0  0  0  0  0  0  0  0  0
    0.0000    0.0000    0.0000 H   0  0  0  0  0  0  0  0  0  0  0  0
    0.0000    0.0000    0.0000 H   0  0  0  0  0  0  0  0  0  0  0  0
    0.0000    0.0000    0.0000 H   0  0  0  0  0  0  0  0  0  0  0  0
    0.0000    0.0000    0.0000 H   0  0  0  0  0  0  0  0  0  0  0  0
    0.0000    0.0000    0.0000 H   0  0  0  0  0  0  0  0  0  0  0  0
    0.0000    0.0000    0.0000 H   0  0  0  0  0  0  0  0  0  0  0  0
    0.0000    0.0000    0.0000 H   0  0  0  0  0  0  0  0  0  0  0  0
    0.0000    0.0000    0.0000 H   0  0  0  0  0  0  0  0  0  0  0  0
    0.0000    0.0000    0.0000 H   0  0  0  0  0  0  0  0  0  0  0  0
    0.0000    0.0000    0.0000 H   0  0  0  0  0  0  0  0  0  0  0  0
    0.0000    0.0000    0.0000 H   0  0  0  0  0  0  0  0  0  0  0  0
    0.0000    0.0000    0.0000 H   0  0  0  0  0  0  0  0  0  0  0  0
    0.0000    0.0000    0.0000 H   0  0  0  0  0  0  0  0  0  0  0  0
    0.0000    0.0000    0.0000 H   0  0  0  0  0  0  0  0  0  0  0  0
    0.0000    0.0000    0.0000 H   0  0  0  0  0  0  0  0  0  0  0  0
    0.0000    0.0000    0.0000 H   0  0  0  0  0  0  0  0  0  0  0  0
    0.0000    0.0000    0.0000 H   0  0  0  0  0  0  0  0  0  0  0  0
    0.0000    0.0000    0.0000 H   0  0  0  0  0  0  0  0  0  0  0  0
    0.0000    0.0000    0.0000 H   0  0  0  0  0  0  0  0  0  0  0  0
    0.0000    0.0000    0.0000 H   0  0  0  0  0  0  0  0  0  0  0  0
  1 10  1  0
  1 23  1  0
  2 23  2  0
  3 34  1  0
  3 45  1  0
  4 34  2  0
  5  9  1  0
  6  9  2  0
  7 11  1  0
  7 12  1  0
  7 19  1  0
  8 24  1  0
  8 26  1  0
  9 36  1  0
 10 11  1  0
 10 16  1  0
 10 17  1  0
 12 13  1  0
 13 14  1  0
 14 20  1  0
 14 21  1  0
 15 18  1  0
 15 22  1  0
 15 25  1  0
 18 23  1  0
 18 24  2  0
 20 27  2  0
 20 29  1  0
 21 28  2  0
 21 30  1  0
 22 26  2  0
 22 34  1  0
 24 31  1  0
 25 32  2  0
 25 33  1  0
 26 35  1  0
 27 37  1  0
 28 38  1  0
 29 39  2  0
 30 40  2  0
 32 36  1  0
 33 41  2  0
 36 44  2  0
 37 42  2  0
 38 43  2  0
 39 42  1  0
 40 43  1  0
 41 44  1  0
  8 46  1  0
 11 47  1  0
 11 48  1  0
 12 49  1  0
 12 50  1  0
 13 51  1  0
 13 52  1  0
 14 53  1  0
 15 54  1  0
 16 55  1  0
 16 56  1  0
 16 57  1  0
 17 58  1  0
 17 59  1  0
 17 60  1  0
 19 61  1  0
 19 62  1  0
 19 63  1  0
 27 64  1  0
 28 65  1  0
 29 66  1  0
 30 67  1  0
 31 68  1  0
 31 69  1  0
 31 70  1  0
 32 71  1  0
 33 72  1  0
 35 73  1  0
 35 74  1  0
 35 75  1  0
 37 76  1  0
 38 77  1  0
 39 78  1  0
 40 79  1  0
 41 80  1  0
 42 81  1  0
 43 82  1  0
 44 83  1  0
 45 84  1  0
 45 85  1  0
 45 86  1  0
M  CHG  2   5  -1   9   1
M  END
>  <ALOGPS_LOGP>  (1) 
6.42

>  <ALOGPS_LOGS>  (1) 
-6.59

>  <ALOGPS_SOLUBILITY>  (1) 
1.56e-04 g/l

>  <DATABASE_ID>  (1) 
DB00528

>  <DATABASE_NAME>  (1) 
drugbank

>  <DRUGBANK_ID>  (1) 
DB00528

>  <DRUG_GROUPS>  (1) 
approved; investigational

>  <EXACT_MASS>  (1) 
611.299536059

>  <FORMULA>  (1) 
C36H41N3O6

>  <GENERIC_NAME>  (1) 
Lercanidipine

>  <INCHI_IDENTIFIER>  (1) 
InChI=1S/C36H41N3O6/c1-24-31(34(40)44-6)33(28-18-13-19-29(22-28)39(42)43)32(25(2)37-24)35(41)45-36(3,4)23-38(5)21-20-30(26-14-9-7-10-15-26)27-16-11-8-12-17-27/h7-19,22,30,33,37H,20-21,23H2,1-6H3

>  <INCHI_KEY>  (1) 
ZDXUKAKRHYTAKV-UHFFFAOYSA-N

>  <JCHEM_ACCEPTOR_COUNT>  (1) 
6

>  <JCHEM_AVERAGE_POLARIZABILITY>  (1) 
65.78264561142419

>  <JCHEM_BIOAVAILABILITY>  (1) 
0

>  <JCHEM_DONOR_COUNT>  (1) 
1

>  <JCHEM_FORMAL_CHARGE>  (1) 
0

>  <JCHEM_GHOSE_FILTER>  (1) 
0

>  <JCHEM_IUPAC>  (1) 
3-{1-[(3,3-diphenylpropyl)(methyl)amino]-2-methylpropan-2-yl} 5-methyl 2,6-dimethyl-4-(3-nitrophenyl)-1,4-dihydropyridine-3,5-dicarboxylate

>  <JCHEM_LOGP>  (1) 
6.409816553333332

>  <JCHEM_MDDR_LIKE_RULE>  (1) 
1

>  <JCHEM_NUMBER_OF_RINGS>  (1) 
4

>  <JCHEM_PHYSIOLOGICAL_CHARGE>  (1) 
1

>  <JCHEM_PKA_STRONGEST_BASIC>  (1) 
9.36311699921927

>  <JCHEM_POLAR_SURFACE_AREA>  (1) 
113.69

>  <JCHEM_REFRACTIVITY>  (1) 
177.8529999999999

>  <JCHEM_ROTATABLE_BOND_COUNT>  (1) 
14

>  <JCHEM_RULE_OF_FIVE>  (1) 
0

>  <JCHEM_TRADITIONAL_IUPAC>  (1) 
lercanidipine

>  <JCHEM_VEBER_RULE>  (1) 
0

>  <MOLECULAR_WEIGHT>  (1) 
611.7272

>  <SECONDARY_ACCESSION_NUMBERS>  (1) 
APRD00193

>  <SMILES>  (1) 
COC(=O)C1=C(C)NC(C)=C(C1C1=CC(=CC=C1)[N+]([O-])=O)C(=O)OC(C)(C)CN(C)CCC(C1=CC=CC=C1)C1=CC=CC=C1

>  <SYNONYMS>  (1) 
Lercanidipine

$$$$
