546
     RDKit          2D

 43 46  0  0  0  0  0  0  0  0999 V2000
    1.6500    0.4541    0.0000 Cl  0  0  0  0  0  0  0  0  0  0  0  0
    4.8159   -0.6407    0.0000 N   0  0  0  0  0  0  0  0  0  0  0  0
    4.5298   -2.8254    0.0000 N   0  0  0  0  0  0  0  0  0  0  0  0
    5.2284    1.1666    0.0000 N   0  0  0  0  0  0  0  0  0  0  0  0
    5.7352   -1.5988    0.0000 N   0  0  0  0  0  0  0  0  0  0  0  0
    6.1244   -0.8770    0.0000 N   0  0  0  0  0  0  0  0  0  0  0  0
    4.0726   -0.2827    0.0000 C   0  0  0  0  0  0  0  0  0  0  0  0
    4.9281   -1.4531    0.0000 C   0  0  0  0  0  0  0  0  0  0  0  0
    5.5592   -0.2827    0.0000 C   0  0  0  0  0  0  0  0  0  0  0  0
    3.8890    0.5217    0.0000 C   0  0  0  0  0  0  0  0  0  0  0  0
    4.3328   -2.0242    0.0000 C   0  0  0  0  0  0  0  0  0  0  0  0
    5.7428    0.5217    0.0000 C   0  0  0  0  0  0  0  0  0  0  0  0
    4.4034    1.1666    0.0000 C   0  0  0  0  0  0  0  0  0  0  0  0
    3.4517   -0.8769    0.0000 C   0  0  0  0  0  0  0  0  0  0  0  0
    3.0718    0.7875    0.0000 C   0  0  0  0  0  0  0  0  0  0  0  0
    4.0454    1.9100    0.0000 C   0  0  0  0  0  0  0  0  0  0  0  0
    2.6286   -0.6299    0.0000 C   0  0  0  0  0  0  0  0  0  0  0  0
    2.4374    0.2079    0.0000 C   0  0  0  0  0  0  0  0  0  0  0  0
    3.9344   -3.3965    0.0000 C   0  0  0  0  0  0  0  0  0  0  0  0
    5.3220   -3.0553    0.0000 C   0  0  0  0  0  0  0  0  0  0  0  0
    3.2227    1.9716    0.0000 C   0  0  0  0  0  0  0  0  0  0  0  0
    4.5102    2.5916    0.0000 C   0  0  0  0  0  0  0  0  0  0  0  0
    2.8648    2.7149    0.0000 C   0  0  0  0  0  0  0  0  0  0  0  0
    4.1523    3.3349    0.0000 C   0  0  0  0  0  0  0  0  0  0  0  0
    3.3296    3.3965    0.0000 C   0  0  0  0  0  0  0  0  0  0  0  0
    0.0000    0.0000    0.0000 H   0  0  0  0  0  0  0  0  0  0  0  0
    0.0000    0.0000    0.0000 H   0  0  0  0  0  0  0  0  0  0  0  0
    0.0000    0.0000    0.0000 H   0  0  0  0  0  0  0  0  0  0  0  0
    0.0000    0.0000    0.0000 H   0  0  0  0  0  0  0  0  0  0  0  0
    0.0000    0.0000    0.0000 H   0  0  0  0  0  0  0  0  0  0  0  0
    0.0000    0.0000    0.0000 H   0  0  0  0  0  0  0  0  0  0  0  0
    0.0000    0.0000    0.0000 H   0  0  0  0  0  0  0  0  0  0  0  0
    0.0000    0.0000    0.0000 H   0  0  0  0  0  0  0  0  0  0  0  0
    0.0000    0.0000    0.0000 H   0  0  0  0  0  0  0  0  0  0  0  0
    0.0000    0.0000    0.0000 H   0  0  0  0  0  0  0  0  0  0  0  0
    0.0000    0.0000    0.0000 H   0  0  0  0  0  0  0  0  0  0  0  0
    0.0000    0.0000    0.0000 H   0  0  0  0  0  0  0  0  0  0  0  0
    0.0000    0.0000    0.0000 H   0  0  0  0  0  0  0  0  0  0  0  0
    0.0000    0.0000    0.0000 H   0  0  0  0  0  0  0  0  0  0  0  0
    0.0000    0.0000    0.0000 H   0  0  0  0  0  0  0  0  0  0  0  0
    0.0000    0.0000    0.0000 H   0  0  0  0  0  0  0  0  0  0  0  0
    0.0000    0.0000    0.0000 H   0  0  0  0  0  0  0  0  0  0  0  0
    0.0000    0.0000    0.0000 H   0  0  0  0  0  0  0  0  0  0  0  0
  1 18  1  0
  2  7  1  0
  2  8  1  0
  2  9  1  0
  3 11  1  0
  3 19  1  0
  3 20  1  0
  4 12  1  0
  4 13  2  0
  5  6  1  0
  5  8  2  0
  6  9  2  0
  7 10  2  0
  7 14  1  0
  8 11  1  0
  9 12  1  0
 10 13  1  0
 10 15  1  0
 13 16  1  0
 14 17  2  0
 15 18  2  0
 16 21  2  0
 16 22  1  0
 17 18  1  0
 21 23  1  0
 22 24  2  0
 23 25  2  0
 24 25  1  0
 11 26  1  0
 11 27  1  0
 12 28  1  0
 12 29  1  0
 14 30  1  0
 15 31  1  0
 17 32  1  0
 19 33  1  0
 19 34  1  0
 19 35  1  0
 20 36  1  0
 20 37  1  0
 20 38  1  0
 21 39  1  0
 22 40  1  0
 23 41  1  0
 24 42  1  0
 25 43  1  0
M  END
>  <ALOGPS_LOGP>  (1) 
2.57

>  <ALOGPS_LOGS>  (1) 
-3.72

>  <ALOGPS_SOLUBILITY>  (1) 
6.72e-02 g/l

>  <DATABASE_ID>  (1) 
DB00546

>  <DATABASE_NAME>  (1) 
drugbank

>  <DRUGBANK_ID>  (1) 
DB00546

>  <DRUG_GROUPS>  (1) 
approved

>  <EXACT_MASS>  (1) 
351.125073308

>  <FORMULA>  (1) 
C19H18ClN5

>  <GENERIC_NAME>  (1) 
Adinazolam

>  <INCHI_IDENTIFIER>  (1) 
InChI=1S/C19H18ClN5/c1-24(2)12-18-23-22-17-11-21-19(13-6-4-3-5-7-13)15-10-14(20)8-9-16(15)25(17)18/h3-10H,11-12H2,1-2H3

>  <INCHI_KEY>  (1) 
GJSLOMWRLALDCT-UHFFFAOYSA-N

>  <INTERNATIONAL_BRANDS>  (1) 
Deracyn

>  <JCHEM_ACCEPTOR_COUNT>  (1) 
4

>  <JCHEM_AVERAGE_POLARIZABILITY>  (1) 
37.153075062888746

>  <JCHEM_BIOAVAILABILITY>  (1) 
1

>  <JCHEM_DONOR_COUNT>  (1) 
0

>  <JCHEM_FORMAL_CHARGE>  (1) 
0

>  <JCHEM_GHOSE_FILTER>  (1) 
1

>  <JCHEM_IUPAC>  (1) 
({12-chloro-9-phenyl-2,4,5,8-tetraazatricyclo[8.4.0.0²,⁶]tetradeca-1(10),3,5,8,11,13-hexaen-3-yl}methyl)dimethylamine

>  <JCHEM_LOGP>  (1) 
2.2406999999999995

>  <JCHEM_MDDR_LIKE_RULE>  (1) 
0

>  <JCHEM_NUMBER_OF_RINGS>  (1) 
4

>  <JCHEM_PHYSIOLOGICAL_CHARGE>  (1) 
0

>  <JCHEM_PKA_STRONGEST_ACIDIC>  (1) 
18.384145210894495

>  <JCHEM_PKA_STRONGEST_BASIC>  (1) 
6.658641192163124

>  <JCHEM_POLAR_SURFACE_AREA>  (1) 
46.31

>  <JCHEM_REFRACTIVITY>  (1) 
112.308

>  <JCHEM_ROTATABLE_BOND_COUNT>  (1) 
3

>  <JCHEM_RULE_OF_FIVE>  (1) 
1

>  <JCHEM_TRADITIONAL_IUPAC>  (1) 
adinazolam

>  <JCHEM_VEBER_RULE>  (1) 
0

>  <MOLECULAR_WEIGHT>  (1) 
351.833

>  <SALTS>  (1) 
Adinazolam mesylate

>  <SECONDARY_ACCESSION_NUMBERS>  (1) 
APRD00724

>  <SMILES>  (1) 
CN(C)CC1=NN=C2CN=C(C3=CC=CC=C3)C3=C(C=CC(Cl)=C3)N12

>  <SYNONYMS>  (1) 
Adinazolamum

$$$$
