
     RDKit          2D

  9  8  0  0  0  0  0  0  0  0999 V2000
    3.5219    0.4909    0.0000 N   0  0  0  0  0  0  0  0  0  0  0  0
    2.0929    0.4909    0.0000 N   0  0  0  0  0  0  0  0  0  0  0  0
    2.8075   -0.7466    0.0000 N   0  0  0  0  0  0  0  0  0  0  0  0
    2.8075    0.0784    0.0000 C   0  0  0  0  0  0  0  0  0  0  0  0
    0.0000    0.0000    0.0000 H   0  0  0  0  0  0  0  0  0  0  0  0
    0.0000    0.0000    0.0000 H   0  0  0  0  0  0  0  0  0  0  0  0
    0.0000    0.0000    0.0000 H   0  0  0  0  0  0  0  0  0  0  0  0
    0.0000    0.0000    0.0000 H   0  0  0  0  0  0  0  0  0  0  0  0
    0.0000    0.0000    0.0000 H   0  0  0  0  0  0  0  0  0  0  0  0
  1  4  1  0
  2  4  1  0
  3  4  2  3
  1  5  1  0
  1  6  1  0
  2  7  1  0
  2  8  1  0
  3  9  1  0
M  END
>  <ALOGPS_LOGP>  (1) 
-1.92

>  <ALOGPS_LOGS>  (1) 
-0.71

>  <ALOGPS_SOLUBILITY>  (1) 
1.15e+01 g/l

>  <DATABASE_ID>  (1) 
DB00536

>  <DATABASE_NAME>  (1) 
drugbank

>  <DRUGBANK_ID>  (1) 
DB00536

>  <DRUG_GROUPS>  (1) 
approved

>  <EXACT_MASS>  (1) 
59.048347175

>  <FORMULA>  (1) 
CH5N3

>  <GENERIC_NAME>  (1) 
Guanidine

>  <INCHI_IDENTIFIER>  (1) 
InChI=1S/CH5N3/c2-1(3)4/h(H5,2,3,4)

>  <INCHI_KEY>  (1) 
ZRALSGWEFCBTJO-UHFFFAOYSA-N

>  <JCHEM_ACCEPTOR_COUNT>  (1) 
3

>  <JCHEM_AVERAGE_POLARIZABILITY>  (1) 
5.570297022100633

>  <JCHEM_BIOAVAILABILITY>  (1) 
1

>  <JCHEM_DONOR_COUNT>  (1) 
3

>  <JCHEM_FORMAL_CHARGE>  (1) 
0

>  <JCHEM_GHOSE_FILTER>  (1) 
0

>  <JCHEM_IUPAC>  (1) 
guanidine

>  <JCHEM_LOGP>  (1) 
-1.236839015

>  <JCHEM_MDDR_LIKE_RULE>  (1) 
0

>  <JCHEM_NUMBER_OF_RINGS>  (1) 
0

>  <JCHEM_PHYSIOLOGICAL_CHARGE>  (1) 
1

>  <JCHEM_PKA_STRONGEST_BASIC>  (1) 
12.547900248166645

>  <JCHEM_POLAR_SURFACE_AREA>  (1) 
75.89

>  <JCHEM_REFRACTIVITY>  (1) 
25.858800000000002

>  <JCHEM_ROTATABLE_BOND_COUNT>  (1) 
0

>  <JCHEM_RULE_OF_FIVE>  (1) 
1

>  <JCHEM_TRADITIONAL_IUPAC>  (1) 
guanidine

>  <JCHEM_VEBER_RULE>  (1) 
0

>  <MOLECULAR_WEIGHT>  (1) 
59.0705

>  <PRODUCTS>  (1) 
Guanidine hydrochloride

>  <SALTS>  (1) 
Guanidine hydrochloride

>  <SECONDARY_ACCESSION_NUMBERS>  (1) 
APRD01008; EXPT01546

>  <SMILES>  (1) 
NC(N)=N

>  <SYNONYMS>  (1) 
Aminomethanamidine; Guanidin; Imidourea; Iminourea

$$$$
