26934
     RDKit          2D

 24 24  0  0  1  0  0  0  0  0999 V2000
    1.6500    0.9034    0.0000 O   0  0  0  0  0  0  0  0  0  0  0  0
    3.0790    1.7284    0.0000 N   0  0  0  0  0  0  0  0  0  0  0  0
    2.3645    0.4909    0.0000 C   0  0  0  0  0  0  0  0  0  0  0  0
    3.0790    0.9034    0.0000 C   0  0  0  0  0  0  0  0  0  0  0  0
    2.3645   -0.3341    0.0000 C   0  0  0  0  0  0  0  0  0  0  0  0
    3.7935    0.4909    0.0000 C   0  0  0  0  0  0  0  0  0  0  0  0
    3.0790   -0.7466    0.0000 C   0  0  0  0  0  0  0  0  0  0  0  0
    1.6500   -0.7466    0.0000 C   0  0  0  0  0  0  0  0  0  0  0  0
    3.0790   -1.5717    0.0000 C   0  0  0  0  0  0  0  0  0  0  0  0
    1.6500   -1.5717    0.0000 C   0  0  0  0  0  0  0  0  0  0  0  0
    2.3645   -1.9842    0.0000 C   0  0  0  0  0  0  0  0  0  0  0  0
    0.0000    0.0000    0.0000 H   0  0  0  0  0  0  0  0  0  0  0  0
    0.0000    0.0000    0.0000 H   0  0  0  0  0  0  0  0  0  0  0  0
    0.0000    0.0000    0.0000 H   0  0  0  0  0  0  0  0  0  0  0  0
    0.0000    0.0000    0.0000 H   0  0  0  0  0  0  0  0  0  0  0  0
    0.0000    0.0000    0.0000 H   0  0  0  0  0  0  0  0  0  0  0  0
    0.0000    0.0000    0.0000 H   0  0  0  0  0  0  0  0  0  0  0  0
    0.0000    0.0000    0.0000 H   0  0  0  0  0  0  0  0  0  0  0  0
    0.0000    0.0000    0.0000 H   0  0  0  0  0  0  0  0  0  0  0  0
    0.0000    0.0000    0.0000 H   0  0  0  0  0  0  0  0  0  0  0  0
    0.0000    0.0000    0.0000 H   0  0  0  0  0  0  0  0  0  0  0  0
    0.0000    0.0000    0.0000 H   0  0  0  0  0  0  0  0  0  0  0  0
    0.0000    0.0000    0.0000 H   0  0  0  0  0  0  0  0  0  0  0  0
    0.0000    0.0000    0.0000 H   0  0  0  0  0  0  0  0  0  0  0  0
  3  1  1  6
  4  2  1  6
  3  4  1  0
  3  5  1  0
  4  6  1  0
  5  7  2  0
  5  8  1  0
  7  9  1  0
  8 10  2  0
  9 11  2  0
 10 11  1  0
  1 12  1  0
  2 13  1  0
  2 14  1  0
  3 15  1  0
  4 16  1  0
  6 17  1  0
  6 18  1  0
  6 19  1  0
  7 20  1  0
  8 21  1  0
  9 22  1  0
 10 23  1  0
 11 24  1  0
M  END
>  <ALOGPS_LOGP>  (1) 
0.57

>  <ALOGPS_LOGS>  (1) 
-0.87

>  <ALOGPS_SOLUBILITY>  (1) 
2.06e+01 g/l

>  <DATABASE_ID>  (1) 
DB00397

>  <DATABASE_NAME>  (1) 
drugbank

>  <DRUGBANK_ID>  (1) 
DB00397

>  <DRUG_GROUPS>  (1) 
approved; vet_approved; withdrawn

>  <EXACT_MASS>  (1) 
151.099714043

>  <FORMULA>  (1) 
C9H13NO

>  <GENERIC_NAME>  (1) 
Phenylpropanolamine

>  <INCHI_IDENTIFIER>  (1) 
InChI=1S/C9H13NO/c1-7(10)9(11)8-5-3-2-4-6-8/h2-7,9,11H,10H2,1H3/t7-,9-/m1/s1

>  <INCHI_KEY>  (1) 
DLNKOYKMWOXYQA-VXNVDRBHSA-N

>  <INTERNATIONAL_BRANDS>  (1) 
Acutrim; Boxogetten; Dexatrim; Disudrin; Naldec; Nasadec; Nasathera; Propagest; Recatol mono; Rhindecon; Rinexin

>  <JCHEM_ACCEPTOR_COUNT>  (1) 
2

>  <JCHEM_AVERAGE_POLARIZABILITY>  (1) 
16.984056567849528

>  <JCHEM_BIOAVAILABILITY>  (1) 
1

>  <JCHEM_DONOR_COUNT>  (1) 
2

>  <JCHEM_FORMAL_CHARGE>  (1) 
0

>  <JCHEM_GHOSE_FILTER>  (1) 
0

>  <JCHEM_IUPAC>  (1) 
(1S,2R)-2-amino-1-phenylpropan-1-ol

>  <JCHEM_LOGP>  (1) 
0.8852543346666666

>  <JCHEM_MDDR_LIKE_RULE>  (1) 
0

>  <JCHEM_NUMBER_OF_RINGS>  (1) 
1

>  <JCHEM_PHYSIOLOGICAL_CHARGE>  (1) 
1

>  <JCHEM_PKA_STRONGEST_ACIDIC>  (1) 
13.896164133633945

>  <JCHEM_PKA_STRONGEST_BASIC>  (1) 
9.370138989147625

>  <JCHEM_POLAR_SURFACE_AREA>  (1) 
46.25

>  <JCHEM_REFRACTIVITY>  (1) 
44.9127

>  <JCHEM_ROTATABLE_BOND_COUNT>  (1) 
2

>  <JCHEM_RULE_OF_FIVE>  (1) 
1

>  <JCHEM_TRADITIONAL_IUPAC>  (1) 
phenylpropanolamine

>  <JCHEM_VEBER_RULE>  (1) 
0

>  <MOLECULAR_WEIGHT>  (1) 
151.2056

>  <PRODUCTS>  (1) 
Antitussive Decong Antihistamine Syr; Bronchodex D Cap; Bronchosirum Pour Enfants; Caldomine Dh Adulte; Caldomine Dh Enfant; Centracol DM - Syr; Chlor Tripolon Decongest Syr; Cold & Allergy Relief - Liq; Cold Decongestant Long Acting Cap; Cold Relief; Cold Relief DM; Contac Cold Capsules; Contac Cold Extra Strength Capsules; Contac Cough  Cold and Flu Caplets; Contact C Src; Coricidin D Long Acting Tab; Coricidin D Tab; Coricidin Nd Tab; Coricidin Sinus Headache Tab; Corsym Suspension; Cough, Cold & Allergy Relief; Counteract Sinus and Allergy; Decongestant Antihistaminic Syrup; Dilotab; Dimetane Expectorant Liq; Dimetane Expectorant-C Syr; Dimetane Expectorant-DC Syr; Dimetapp Chewable Tablets; Dimetapp Children's Cold & Allergy Tablets; Dimetapp Children's Cold & Fever; Dimetapp Clear; Dimetapp Cold & Sinus; Dimetapp Cough & Cold Liqui-gels  -  Cap; Dimetapp Cough, Cold & Flu; Dimetapp DM Elixir; Dimetapp DM Tab; Dimetapp Elixir; Dimetapp Extentabs; Dimetapp Liqui-gels Cap; Dimetapp Oral Infant Drops; Dimetapp Tab; Dimetapp-C Syr; Dristan Capsules; Emercidin D Tab; Emertabs Tab; Entex LA; Entex LA Tablets Srt; Extra Strength Contac C - Src; Oradrine 2 Tab; Oradrine Tablets; Ornade AF Liquid; Ornade AF Spansule Src; Ornade DM 10 Liq; Ornade DM 15 Liq; Ornade DM 30 Liq; Ornade Expectorant Cough Formula; Ornade Liquid; Ornade Spansule  Src; Pharmacol DM Syr; Pharmetapp Elixir; Pharminicol DM Syrup; Sine Off Nd Extra Strength Caplet; Sine-off Allergy Tab; Sine-off N.D. Tab; Sine-off N.D. Tablet; Sinutab Sa Tab; Tantacol DM Syr; Tantapp Elixir; Tavist-D Tablets; Triaminic Cold and Allergy Syrup; Triaminic DM Daytime Syr; Triaminic Expectorant Dh Syrup; Triaminic Time Release Tab; Triaminicin Colds & Flu Caplets; Trisulfaminic Sus; Trisulfaminic Tab; Tussaminic C Forte Syrup; Tussaminic C Pediatric Syrup; Tussaminic Dh Forte Syrup; Tussaminic Dh Pediatric Syrup

>  <SALTS>  (1) 
Phenylpropanolamine hydrochloride

>  <SECONDARY_ACCESSION_NUMBERS>  (1) 
APRD00457; DB09441

>  <SMILES>  (1) 
C[C@@H](N)[C@@H](O)C1=CC=CC=C1

>  <SYNONYMS>  (1) 
2-amino-1-phenylpropan-1-ol; Fenilpropanolamina; Norephedrin; Phenylpropanolamin; Phénylpropanolamine; Phenylpropanolaminum; PPA; β-hydroxyamphetamine

$$$$
