224
     RDKit          2D

 92 96  0  0  1  0  0  0  0  0999 V2000
    6.2816   -0.1701    0.0000 O   0  0  0  0  0  0  0  0  0  0  0  0
    5.1662   -1.3445    0.0000 O   0  0  0  0  0  0  0  0  0  0  0  0
    8.4087    1.7386    0.0000 O   0  0  0  0  0  0  0  0  0  0  0  0
    5.4743   -0.3402    0.0000 O   0  0  0  0  0  0  0  0  0  0  0  0
    7.8961    0.1701    0.0000 N   0  0  0  0  0  0  0  0  0  0  0  0
    8.9981   -1.0580    0.0000 N   0  0  0  0  0  0  0  0  0  0  0  0
    4.1160    0.1036    0.0000 N   0  0  0  0  0  0  0  0  0  0  0  0
    9.7671    1.2946    0.0000 N   0  0  0  0  0  0  0  0  0  0  0  0
    9.5875   -3.8545    0.0000 N   0  0  0  0  0  0  0  0  0  0  0  0
    8.7034    0.3402    0.0000 C   0  0  0  0  0  0  0  0  0  0  0  0
    9.2544   -0.2738    0.0000 C   0  0  0  0  0  0  0  0  0  0  0  0
    7.6398   -0.6141    0.0000 C   0  0  0  0  0  0  0  0  0  0  0  0
    7.3452    0.7842    0.0000 C   0  0  0  0  0  0  0  0  0  0  0  0
    8.1908   -1.2281    0.0000 C   0  0  0  0  0  0  0  0  0  0  0  0
    6.5379    0.6141    0.0000 C   0  0  0  0  0  0  0  0  0  0  0  0
    5.9869    1.2281    0.0000 C   0  0  0  0  0  0  0  0  0  0  0  0
    5.1796    1.0580    0.0000 C   0  0  0  0  0  0  0  0  0  0  0  0
    3.8597   -0.6806    0.0000 C   0  0  0  0  0  0  0  0  0  0  0  0
    8.9598    1.1245    0.0000 C   0  0  0  0  0  0  0  0  0  0  0  0
    4.3412   -1.3445    0.0000 C   0  0  0  0  0  0  0  0  0  0  0  0
    9.5491   -1.6721    0.0000 C   0  0  0  0  0  0  0  0  0  0  0  0
    3.8597   -2.0084    0.0000 C   0  0  0  0  0  0  0  0  0  0  0  0
    3.0791   -0.9319    0.0000 C   0  0  0  0  0  0  0  0  0  0  0  0
    4.9233    0.2738    0.0000 C   0  0  0  0  0  0  0  0  0  0  0  0
    4.6286    1.6721    0.0000 C   0  0  0  0  0  0  0  0  0  0  0  0
    3.0791   -1.7570    0.0000 C   0  0  0  0  0  0  0  0  0  0  0  0
   10.3180    0.6806    0.0000 C   0  0  0  0  0  0  0  0  0  0  0  0
    9.2928   -2.4563    0.0000 C   0  0  0  0  0  0  0  0  0  0  0  0
    2.3645   -0.5194    0.0000 C   0  0  0  0  0  0  0  0  0  0  0  0
    4.8849    2.4563    0.0000 C   0  0  0  0  0  0  0  0  0  0  0  0
    2.3645   -2.1695    0.0000 C   0  0  0  0  0  0  0  0  0  0  0  0
    9.7039    0.1295    0.0000 C   0  0  0  0  0  0  0  0  0  0  0  0
   10.9321    1.2315    0.0000 C   0  0  0  0  0  0  0  0  0  0  0  0
   10.8690    0.0665    0.0000 C   0  0  0  0  0  0  0  0  0  0  0  0
    1.6501   -0.9319    0.0000 C   0  0  0  0  0  0  0  0  0  0  0  0
    1.6501   -1.7570    0.0000 C   0  0  0  0  0  0  0  0  0  0  0  0
    8.4855   -2.6264    0.0000 C   0  0  0  0  0  0  0  0  0  0  0  0
    9.8438   -3.0703    0.0000 C   0  0  0  0  0  0  0  0  0  0  0  0
    4.3339    3.0703    0.0000 C   0  0  0  0  0  0  0  0  0  0  0  0
    5.6922    2.6264    0.0000 C   0  0  0  0  0  0  0  0  0  0  0  0
    8.2292   -3.4106    0.0000 C   0  0  0  0  0  0  0  0  0  0  0  0
    4.5902    3.8545    0.0000 C   0  0  0  0  0  0  0  0  0  0  0  0
    5.9485    3.4106    0.0000 C   0  0  0  0  0  0  0  0  0  0  0  0
    5.3975    4.0246    0.0000 C   0  0  0  0  0  0  0  0  0  0  0  0
    8.7802   -4.0246    0.0000 C   0  0  0  0  0  0  0  0  0  0  0  0
    0.0000    0.0000    0.0000 H   0  0  0  0  0  0  0  0  0  0  0  0
    0.0000    0.0000    0.0000 H   0  0  0  0  0  0  0  0  0  0  0  0
    0.0000    0.0000    0.0000 H   0  0  0  0  0  0  0  0  0  0  0  0
    0.0000    0.0000    0.0000 H   0  0  0  0  0  0  0  0  0  0  0  0
    0.0000    0.0000    0.0000 H   0  0  0  0  0  0  0  0  0  0  0  0
    0.0000    0.0000    0.0000 H   0  0  0  0  0  0  0  0  0  0  0  0
    0.0000    0.0000    0.0000 H   0  0  0  0  0  0  0  0  0  0  0  0
    0.0000    0.0000    0.0000 H   0  0  0  0  0  0  0  0  0  0  0  0
    0.0000    0.0000    0.0000 H   0  0  0  0  0  0  0  0  0  0  0  0
    0.0000    0.0000    0.0000 H   0  0  0  0  0  0  0  0  0  0  0  0
    0.0000    0.0000    0.0000 H   0  0  0  0  0  0  0  0  0  0  0  0
    0.0000    0.0000    0.0000 H   0  0  0  0  0  0  0  0  0  0  0  0
    0.0000    0.0000    0.0000 H   0  0  0  0  0  0  0  0  0  0  0  0
    0.0000    0.0000    0.0000 H   0  0  0  0  0  0  0  0  0  0  0  0
    0.0000    0.0000    0.0000 H   0  0  0  0  0  0  0  0  0  0  0  0
    0.0000    0.0000    0.0000 H   0  0  0  0  0  0  0  0  0  0  0  0
    0.0000    0.0000    0.0000 H   0  0  0  0  0  0  0  0  0  0  0  0
    0.0000    0.0000    0.0000 H   0  0  0  0  0  0  0  0  0  0  0  0
    0.0000    0.0000    0.0000 H   0  0  0  0  0  0  0  0  0  0  0  0
    0.0000    0.0000    0.0000 H   0  0  0  0  0  0  0  0  0  0  0  0
    0.0000    0.0000    0.0000 H   0  0  0  0  0  0  0  0  0  0  0  0
    0.0000    0.0000    0.0000 H   0  0  0  0  0  0  0  0  0  0  0  0
    0.0000    0.0000    0.0000 H   0  0  0  0  0  0  0  0  0  0  0  0
    0.0000    0.0000    0.0000 H   0  0  0  0  0  0  0  0  0  0  0  0
    0.0000    0.0000    0.0000 H   0  0  0  0  0  0  0  0  0  0  0  0
    0.0000    0.0000    0.0000 H   0  0  0  0  0  0  0  0  0  0  0  0
    0.0000    0.0000    0.0000 H   0  0  0  0  0  0  0  0  0  0  0  0
    0.0000    0.0000    0.0000 H   0  0  0  0  0  0  0  0  0  0  0  0
    0.0000    0.0000    0.0000 H   0  0  0  0  0  0  0  0  0  0  0  0
    0.0000    0.0000    0.0000 H   0  0  0  0  0  0  0  0  0  0  0  0
    0.0000    0.0000    0.0000 H   0  0  0  0  0  0  0  0  0  0  0  0
    0.0000    0.0000    0.0000 H   0  0  0  0  0  0  0  0  0  0  0  0
    0.0000    0.0000    0.0000 H   0  0  0  0  0  0  0  0  0  0  0  0
    0.0000    0.0000    0.0000 H   0  0  0  0  0  0  0  0  0  0  0  0
    0.0000    0.0000    0.0000 H   0  0  0  0  0  0  0  0  0  0  0  0
    0.0000    0.0000    0.0000 H   0  0  0  0  0  0  0  0  0  0  0  0
    0.0000    0.0000    0.0000 H   0  0  0  0  0  0  0  0  0  0  0  0
    0.0000    0.0000    0.0000 H   0  0  0  0  0  0  0  0  0  0  0  0
    0.0000    0.0000    0.0000 H   0  0  0  0  0  0  0  0  0  0  0  0
    0.0000    0.0000    0.0000 H   0  0  0  0  0  0  0  0  0  0  0  0
    0.0000    0.0000    0.0000 H   0  0  0  0  0  0  0  0  0  0  0  0
    0.0000    0.0000    0.0000 H   0  0  0  0  0  0  0  0  0  0  0  0
    0.0000    0.0000    0.0000 H   0  0  0  0  0  0  0  0  0  0  0  0
    0.0000    0.0000    0.0000 H   0  0  0  0  0  0  0  0  0  0  0  0
    0.0000    0.0000    0.0000 H   0  0  0  0  0  0  0  0  0  0  0  0
    0.0000    0.0000    0.0000 H   0  0  0  0  0  0  0  0  0  0  0  0
    0.0000    0.0000    0.0000 H   0  0  0  0  0  0  0  0  0  0  0  0
 15  1  1  1
 20  2  1  1
  3 19  2  0
  4 24  2  0
  5 10  1  0
  5 12  1  0
  5 13  1  0
  6 11  1  0
  6 14  1  0
  6 21  1  0
 18  7  1  6
  7 24  1  0
  8 19  1  0
  8 27  1  0
  9 38  2  0
  9 45  1  0
 10 11  1  0
 10 19  1  6
 12 14  1  0
 13 15  1  0
 15 16  1  0
 17 16  1  1
 17 24  1  0
 17 25  1  0
 18 20  1  0
 18 23  1  0
 20 22  1  0
 21 28  1  0
 22 26  1  0
 23 26  2  0
 23 29  1  0
 25 30  1  0
 26 31  1  0
 27 32  1  0
 27 33  1  0
 27 34  1  0
 28 37  2  0
 28 38  1  0
 29 35  2  0
 30 39  2  0
 30 40  1  0
 31 36  2  0
 35 36  1  0
 37 41  1  0
 39 42  1  0
 40 43  2  0
 41 45  2  0
 42 44  2  0
 43 44  1  0
  1 46  1  0
  2 47  1  0
  7 48  1  0
  8 49  1  0
 10 50  1  0
 11 51  1  0
 11 52  1  0
 12 53  1  0
 12 54  1  0
 13 55  1  0
 13 56  1  0
 14 57  1  0
 14 58  1  0
 15 59  1  0
 16 60  1  0
 16 61  1  0
 17 62  1  0
 18 63  1  0
 20 64  1  0
 21 65  1  0
 21 66  1  0
 22 67  1  0
 22 68  1  0
 25 69  1  0
 25 70  1  0
 29 71  1  0
 31 72  1  0
 32 73  1  0
 32 74  1  0
 32 75  1  0
 33 76  1  0
 33 77  1  0
 33 78  1  0
 34 79  1  0
 34 80  1  0
 34 81  1  0
 35 82  1  0
 36 83  1  0
 37 84  1  0
 38 85  1  0
 39 86  1  0
 40 87  1  0
 41 88  1  0
 42 89  1  0
 43 90  1  0
 44 91  1  0
 45 92  1  0
M  END
>  <ALOGPS_LOGP>  (1) 
3.26

>  <ALOGPS_LOGS>  (1) 
-4.11

>  <ALOGPS_SOLUBILITY>  (1) 
4.82e-02 g/l

>  <DATABASE_ID>  (1) 
DB00224

>  <DATABASE_NAME>  (1) 
drugbank

>  <DRUGBANK_ID>  (1) 
DB00224

>  <DRUG_GROUPS>  (1) 
approved

>  <EXACT_MASS>  (1) 
613.362805017

>  <FORMULA>  (1) 
C36H47N5O4

>  <GENERIC_NAME>  (1) 
Indinavir

>  <INCHI_IDENTIFIER>  (1) 
InChI=1S/C36H47N5O4/c1-36(2,3)39-35(45)31-24-40(22-26-12-9-15-37-21-26)16-17-41(31)23-29(42)19-28(18-25-10-5-4-6-11-25)34(44)38-33-30-14-8-7-13-27(30)20-32(33)43/h4-15,21,28-29,31-33,42-43H,16-20,22-24H2,1-3H3,(H,38,44)(H,39,45)/t28-,29+,31+,32-,33+/m1/s1

>  <INCHI_KEY>  (1) 
CBVCZFGXHXORBI-PXQQMZJSSA-N

>  <JCHEM_ACCEPTOR_COUNT>  (1) 
7

>  <JCHEM_AVERAGE_POLARIZABILITY>  (1) 
68.62769746136816

>  <JCHEM_BIOAVAILABILITY>  (1) 
0

>  <JCHEM_DONOR_COUNT>  (1) 
4

>  <JCHEM_FORMAL_CHARGE>  (1) 
0

>  <JCHEM_GHOSE_FILTER>  (1) 
0

>  <JCHEM_IUPAC>  (1) 
(2S)-1-[(2S,4R)-4-benzyl-2-hydroxy-4-{[(1S,2R)-2-hydroxy-2,3-dihydro-1H-inden-1-yl]carbamoyl}butyl]-N-tert-butyl-4-(pyridin-3-ylmethyl)piperazine-2-carboxamide

>  <JCHEM_LOGP>  (1) 
2.809930858

>  <JCHEM_MDDR_LIKE_RULE>  (1) 
1

>  <JCHEM_NUMBER_OF_RINGS>  (1) 
5

>  <JCHEM_PHYSIOLOGICAL_CHARGE>  (1) 
1

>  <JCHEM_PKA>  (1) 
14.211853983957067

>  <JCHEM_PKA_STRONGEST_ACIDIC>  (1) 
13.191398216294694

>  <JCHEM_PKA_STRONGEST_BASIC>  (1) 
7.370810719431644

>  <JCHEM_POLAR_SURFACE_AREA>  (1) 
118.02999999999999

>  <JCHEM_REFRACTIVITY>  (1) 
175.8940999999999

>  <JCHEM_ROTATABLE_BOND_COUNT>  (1) 
12

>  <JCHEM_RULE_OF_FIVE>  (1) 
0

>  <JCHEM_TRADITIONAL_IUPAC>  (1) 
indinavir

>  <JCHEM_VEBER_RULE>  (1) 
0

>  <MOLECULAR_WEIGHT>  (1) 
613.7895

>  <PRODUCTS>  (1) 
Crixivan

>  <SALTS>  (1) 
Indinavir monohydrate; Indinavir sulfate

>  <SECONDARY_ACCESSION_NUMBERS>  (1) 
APRD00069

>  <SMILES>  (1) 
CC(C)(C)NC(=O)[C@@H]1CN(CC2=CN=CC=C2)CCN1C[C@@H](O)C[C@@H](CC1=CC=CC=C1)C(=O)N[C@@H]1[C@H](O)CC2=CC=CC=C12

>  <SYNONYMS>  (1) 
(1(1S,2R),5(S))-2,3,5-Trideoxy-N-(2,3-dihydro-2-hydroxy-1H-inden-1-yl)-5-(2-(((1,1-dimethylethyl)amino)carbonyl)-4-(3-pyridinylmethyl)-1-piperazinyl)-2-(phenylmethyl)-D-erythro-pentonamide; Indinavir anhydrous

$$$$
