368
     RDKit          2D

 23 23  0  0  1  0  0  0  0  0999 V2000
    2.8075    1.4438    0.0000 O   0  0  0  0  0  0  0  0  0  0  0  0
    2.0930   -1.4438    0.0000 O   0  0  0  0  0  0  0  0  0  0  0  0
    3.5220   -2.2688    0.0000 O   0  0  0  0  0  0  0  0  0  0  0  0
    4.2365    2.2688    0.0000 N   0  0  0  0  0  0  0  0  0  0  0  0
    3.5220    1.0313    0.0000 C   0  0  0  0  0  0  0  0  0  0  0  0
    3.5220    0.2063    0.0000 C   0  0  0  0  0  0  0  0  0  0  0  0
    4.2365    1.4438    0.0000 C   0  0  0  0  0  0  0  0  0  0  0  0
    2.8075   -0.2063    0.0000 C   0  0  0  0  0  0  0  0  0  0  0  0
    4.2365   -0.2063    0.0000 C   0  0  0  0  0  0  0  0  0  0  0  0
    2.8075   -1.0313    0.0000 C   0  0  0  0  0  0  0  0  0  0  0  0
    4.2365   -1.0313    0.0000 C   0  0  0  0  0  0  0  0  0  0  0  0
    3.5220   -1.4438    0.0000 C   0  0  0  0  0  0  0  0  0  0  0  0
    0.0000    0.0000    0.0000 H   0  0  0  0  0  0  0  0  0  0  0  0
    0.0000    0.0000    0.0000 H   0  0  0  0  0  0  0  0  0  0  0  0
    0.0000    0.0000    0.0000 H   0  0  0  0  0  0  0  0  0  0  0  0
    0.0000    0.0000    0.0000 H   0  0  0  0  0  0  0  0  0  0  0  0
    0.0000    0.0000    0.0000 H   0  0  0  0  0  0  0  0  0  0  0  0
    0.0000    0.0000    0.0000 H   0  0  0  0  0  0  0  0  0  0  0  0
    0.0000    0.0000    0.0000 H   0  0  0  0  0  0  0  0  0  0  0  0
    0.0000    0.0000    0.0000 H   0  0  0  0  0  0  0  0  0  0  0  0
    0.0000    0.0000    0.0000 H   0  0  0  0  0  0  0  0  0  0  0  0
    0.0000    0.0000    0.0000 H   0  0  0  0  0  0  0  0  0  0  0  0
    0.0000    0.0000    0.0000 H   0  0  0  0  0  0  0  0  0  0  0  0
  5  1  1  1
  2 10  1  0
  3 12  1  0
  4  7  1  0
  5  6  1  0
  5  7  1  0
  6  8  2  0
  6  9  1  0
  8 10  1  0
  9 11  2  0
 10 12  2  0
 11 12  1  0
  1 13  1  0
  2 14  1  0
  3 15  1  0
  4 16  1  0
  4 17  1  0
  5 18  1  0
  7 19  1  0
  7 20  1  0
  8 21  1  0
  9 22  1  0
 11 23  1  0
M  END
>  <ALOGPS_LOGP>  (1) 
-1.40

>  <ALOGPS_LOGS>  (1) 
-1.13

>  <ALOGPS_SOLUBILITY>  (1) 
1.25e+01 g/l

>  <DATABASE_ID>  (1) 
DB00368

>  <DATABASE_NAME>  (1) 
drugbank

>  <DRUGBANK_ID>  (1) 
DB00368

>  <DRUG_GROUPS>  (1) 
approved

>  <EXACT_MASS>  (1) 
169.073893223

>  <FORMULA>  (1) 
C8H11NO3

>  <GENERIC_NAME>  (1) 
Norepinephrine

>  <INCHI_IDENTIFIER>  (1) 
InChI=1S/C8H11NO3/c9-4-8(12)5-1-2-6(10)7(11)3-5/h1-3,8,10-12H,4,9H2/t8-/m0/s1

>  <INCHI_KEY>  (1) 
SFLSHLFXELFNJZ-QMMMGPOBSA-N

>  <JCHEM_ACCEPTOR_COUNT>  (1) 
4

>  <JCHEM_AVERAGE_POLARIZABILITY>  (1) 
16.958808672908873

>  <JCHEM_BIOAVAILABILITY>  (1) 
1

>  <JCHEM_DONOR_COUNT>  (1) 
4

>  <JCHEM_FORMAL_CHARGE>  (1) 
0

>  <JCHEM_GHOSE_FILTER>  (1) 
0

>  <JCHEM_IUPAC>  (1) 
4-[(1R)-2-amino-1-hydroxyethyl]benzene-1,2-diol

>  <JCHEM_LOGP>  (1) 
-0.6835133951859955

>  <JCHEM_MDDR_LIKE_RULE>  (1) 
0

>  <JCHEM_NUMBER_OF_RINGS>  (1) 
1

>  <JCHEM_PHYSIOLOGICAL_CHARGE>  (1) 
1

>  <JCHEM_PKA>  (1) 
12.652756385089422

>  <JCHEM_PKA_STRONGEST_ACIDIC>  (1) 
9.500884650011601

>  <JCHEM_PKA_STRONGEST_BASIC>  (1) 
8.84847263942599

>  <JCHEM_POLAR_SURFACE_AREA>  (1) 
86.71

>  <JCHEM_REFRACTIVITY>  (1) 
44.4557

>  <JCHEM_ROTATABLE_BOND_COUNT>  (1) 
2

>  <JCHEM_RULE_OF_FIVE>  (1) 
1

>  <JCHEM_TRADITIONAL_IUPAC>  (1) 
norepinephrine

>  <JCHEM_VEBER_RULE>  (1) 
0

>  <MOLECULAR_WEIGHT>  (1) 
169.1778

>  <PRODUCTS>  (1) 
Levophed; Levophed Liq IV 1.0mg/ml; Norepinephrine Bitartrate; Norepinephrine Bitartrate Inj 1mg/ml USP; Norepinephrine Bitartrate Injection, USP; Norepinephrine bitartrate

>  <SALTS>  (1) 
Norepinephrine bitartrate

>  <SECONDARY_ACCESSION_NUMBERS>  (1) 
APRD01299

>  <SMILES>  (1) 
NC[C@H](O)C1=CC(O)=C(O)C=C1

>  <SYNONYMS>  (1) 
Nor-adrenaline

$$$$
