
     RDKit          2D

 38 40  0  0  1  0  0  0  0  0999 V2000
   15.1257   -5.2681    0.0000 C   0  0  0  0  0  0  0  0  0  0  0  0
   15.1257   -6.0931    0.0000 N   0  0  0  0  0  0  0  0  0  0  0  0
   15.8401   -6.5056    0.0000 C   0  0  0  0  0  0  0  0  0  0  0  0
   16.5546   -6.0931    0.0000 C   0  0  0  0  0  0  0  0  0  0  0  0
   16.5546   -5.2681    0.0000 C   0  0  0  0  0  0  0  0  0  0  0  0
   15.8401   -4.8556    0.0000 S   0  0  0  0  0  0  0  0  0  0  0  0
   14.3007   -5.2681    0.0000 C   0  0  0  0  0  0  0  0  0  0  0  0
   14.3007   -6.0931    0.0000 C   0  0  0  0  0  0  0  0  0  0  0  0
   13.5861   -4.8556    0.0000 N   0  0  0  0  0  0  0  0  0  0  0  0
   12.8716   -5.2681    0.0000 C   0  0  0  0  0  0  0  0  0  0  0  0
   12.8716   -6.0931    0.0000 O   0  0  0  0  0  0  0  0  0  0  0  0
   13.5861   -6.5056    0.0000 O   0  0  0  0  0  0  0  0  0  0  0  0
   12.1570   -4.8556    0.0000 C   0  0  0  0  0  0  0  0  0  0  0  0
   17.2802   -6.5122    0.0000 Cl  0  0  0  0  0  0  0  0  0  0  0  0
   15.8401   -7.3305    0.0000 C   0  0  0  0  0  0  0  0  0  0  0  0
   15.1157   -7.7488    0.0000 O   0  0  0  0  0  0  0  0  0  0  0  0
   16.5447   -7.7373    0.0000 O   0  0  0  0  0  0  0  0  0  0  0  0
   11.4312   -5.2750    0.0000 C   0  0  0  0  0  0  0  0  0  0  0  0
   10.7176   -4.8630    0.0000 C   0  0  0  0  0  0  0  0  0  0  0  0
   10.0040   -5.2750    0.0000 C   0  0  0  0  0  0  0  0  0  0  0  0
   10.0040   -6.0990    0.0000 C   0  0  0  0  0  0  0  0  0  0  0  0
   10.7176   -6.5110    0.0000 C   0  0  0  0  0  0  0  0  0  0  0  0
   11.4312   -6.0990    0.0000 C   0  0  0  0  0  0  0  0  0  0  0  0
   12.1570   -4.0279    0.0000 N   0  0  0  0  0  0  0  0  0  0  0  0
    0.0000    0.0000    0.0000 H   0  0  0  0  0  0  0  0  0  0  0  0
    0.0000    0.0000    0.0000 H   0  0  0  0  0  0  0  0  0  0  0  0
    0.0000    0.0000    0.0000 H   0  0  0  0  0  0  0  0  0  0  0  0
    0.0000    0.0000    0.0000 H   0  0  0  0  0  0  0  0  0  0  0  0
    0.0000    0.0000    0.0000 H   0  0  0  0  0  0  0  0  0  0  0  0
    0.0000    0.0000    0.0000 H   0  0  0  0  0  0  0  0  0  0  0  0
    0.0000    0.0000    0.0000 H   0  0  0  0  0  0  0  0  0  0  0  0
    0.0000    0.0000    0.0000 H   0  0  0  0  0  0  0  0  0  0  0  0
    0.0000    0.0000    0.0000 H   0  0  0  0  0  0  0  0  0  0  0  0
    0.0000    0.0000    0.0000 H   0  0  0  0  0  0  0  0  0  0  0  0
    0.0000    0.0000    0.0000 H   0  0  0  0  0  0  0  0  0  0  0  0
    0.0000    0.0000    0.0000 H   0  0  0  0  0  0  0  0  0  0  0  0
    0.0000    0.0000    0.0000 H   0  0  0  0  0  0  0  0  0  0  0  0
    0.0000    0.0000    0.0000 H   0  0  0  0  0  0  0  0  0  0  0  0
  1  2  1  0
  2  3  1  0
  3  4  2  0
  4  5  1  0
  5  6  1  0
  1  6  1  0
  1  7  1  0
  7  8  1  0
  2  8  1  0
  7  9  1  1
  9 10  1  0
 10 11  2  0
  8 12  2  0
 13 10  1  6
  4 14  1  0
  3 15  1  0
 15 16  2  0
 15 17  1  0
 13 18  1  0
 18 19  2  0
 19 20  1  0
 20 21  2  0
 21 22  1  0
 22 23  2  0
 18 23  1  0
 13 24  1  0
  1 25  1  6
  5 26  1  0
  5 27  1  0
  7 28  1  0
  9 29  1  0
 13 30  1  0
 17 31  1  0
 19 32  1  0
 20 33  1  0
 21 34  1  0
 22 35  1  0
 23 36  1  0
 24 37  1  0
 24 38  1  0
M  END
>  <ALOGPS_LOGP>  (1) 
0.85

>  <ALOGPS_LOGS>  (1) 
-3.24

>  <ALOGPS_SOLUBILITY>  (1) 
2.10e-01 g/l

>  <DATABASE_ID>  (1) 
DB00833

>  <DATABASE_NAME>  (1) 
drugbank

>  <DRUGBANK_ID>  (1) 
DB00833

>  <DRUG_GROUPS>  (1) 
approved

>  <EXACT_MASS>  (1) 
367.039354348

>  <FORMULA>  (1) 
C15H14ClN3O4S

>  <GENERIC_NAME>  (1) 
Cefaclor

>  <INCHI_IDENTIFIER>  (1) 
InChI=1S/C15H14ClN3O4S/c16-8-6-24-14-10(13(21)19(14)11(8)15(22)23)18-12(20)9(17)7-4-2-1-3-5-7/h1-5,9-10,14H,6,17H2,(H,18,20)(H,22,23)/t9-,10-,14-/m1/s1

>  <INCHI_KEY>  (1) 
QYIYFLOTGYLRGG-GPCCPHFNSA-N

>  <INTERNATIONAL_BRANDS>  (1) 
Alenfral; Alfacet; Alfatil; Alfatil LP; Ceclor CD; Distaclor; Keflor; Kefral; Panacef; Panoral; Raniclor

>  <JCHEM_ACCEPTOR_COUNT>  (1) 
5

>  <JCHEM_AVERAGE_POLARIZABILITY>  (1) 
35.11392625400316

>  <JCHEM_BIOAVAILABILITY>  (1) 
1

>  <JCHEM_DONOR_COUNT>  (1) 
3

>  <JCHEM_FORMAL_CHARGE>  (1) 
0

>  <JCHEM_GHOSE_FILTER>  (1) 
0

>  <JCHEM_IUPAC>  (1) 
(6R,7R)-7-[(2R)-2-amino-2-phenylacetamido]-3-chloro-8-oxo-5-thia-1-azabicyclo[4.2.0]oct-2-ene-2-carboxylic acid

>  <JCHEM_LOGP>  (1) 
-2.3063354756903647

>  <JCHEM_MDDR_LIKE_RULE>  (1) 
0

>  <JCHEM_NUMBER_OF_RINGS>  (1) 
3

>  <JCHEM_PHYSIOLOGICAL_CHARGE>  (1) 
0

>  <JCHEM_PKA>  (1) 
11.258407322496303

>  <JCHEM_PKA_STRONGEST_ACIDIC>  (1) 
3.0266292526221776

>  <JCHEM_PKA_STRONGEST_BASIC>  (1) 
7.438176765543151

>  <JCHEM_POLAR_SURFACE_AREA>  (1) 
112.73

>  <JCHEM_REFRACTIVITY>  (1) 
89.56180000000002

>  <JCHEM_ROTATABLE_BOND_COUNT>  (1) 
4

>  <JCHEM_RULE_OF_FIVE>  (1) 
1

>  <JCHEM_TRADITIONAL_IUPAC>  (1) 
cefaclor

>  <JCHEM_VEBER_RULE>  (1) 
0

>  <MOLECULAR_WEIGHT>  (1) 
367.807

>  <PRODUCTS>  (1) 
Apo-cefaclor; Ceclor; Cefaclor; Cefaclor Capsules; Cefaclor Suspension; Cefaclor-125; Cefaclor-250; Cefaclor-375; Cefaclor-500; Dom-cefaclor 125 - Sus 25mg/ml; Dom-cefaclor 250-sus 50mg/ml; Dom-cefaclor 375 B.I.D.; Novo-cefaclor; Nu-cefaclor; Nu-cefaclor Capsules 250mg; PMS-cefaclor; PMS-cefaclor 125 - Pws 25mg/ml; PMS-cefaclor 250 - Pws 50mg/ml; PMS-cefaclor 375 B.I.D.

>  <SALTS>  (1) 
Cefaclor monohydrate

>  <SECONDARY_ACCESSION_NUMBERS>  (1) 
APRD00243

>  <SMILES>  (1) 
[H][C@]12SCC(Cl)=C(N1C(=O)[C@H]2NC(=O)[C@H](N)C1=CC=CC=C1)C(O)=O

>  <SYNONYMS>  (1) 
CCL; Cefaclor; Cefaclor anhydrous; Cefacloro ; Cefaclorum; CÃ©feaclor ; Cephaclor

$$$$
