706
     RDKit          2D

 56 57  0  0  1  0  0  0  0  0999 V2000
    3.7935    3.7910    0.0000 S   0  0  0  0  0  0  0  0  0  0  0  0
    6.6515   -1.9842    0.0000 O   0  0  0  0  0  0  0  0  0  0  0  0
    2.3645    2.9659    0.0000 O   0  0  0  0  0  0  0  0  0  0  0  0
    2.9685    3.7910    0.0000 O   0  0  0  0  0  0  0  0  0  0  0  0
    4.6185    3.7910    0.0000 O   0  0  0  0  0  0  0  0  0  0  0  0
    6.6515   -3.6342    0.0000 O   0  0  0  0  0  0  0  0  0  0  0  0
    5.9370    0.0784    0.0000 N   0  0  0  0  0  0  0  0  0  0  0  0
    3.7935    4.6160    0.0000 N   0  0  0  0  0  0  0  0  0  0  0  0
    5.2224    0.4909    0.0000 C   0  0  0  0  0  0  0  0  0  0  0  0
    5.2224    1.3159    0.0000 C   0  0  0  0  0  0  0  0  0  0  0  0
    4.5080    1.7284    0.0000 C   0  0  0  0  0  0  0  0  0  0  0  0
    4.5080    0.0784    0.0000 C   0  0  0  0  0  0  0  0  0  0  0  0
    5.9370   -0.7466    0.0000 C   0  0  0  0  0  0  0  0  0  0  0  0
    4.5080    2.5534    0.0000 C   0  0  0  0  0  0  0  0  0  0  0  0
    3.7935    2.9659    0.0000 C   0  0  0  0  0  0  0  0  0  0  0  0
    3.7935    1.3159    0.0000 C   0  0  0  0  0  0  0  0  0  0  0  0
    6.6515   -1.1592    0.0000 C   0  0  0  0  0  0  0  0  0  0  0  0
    3.0791    2.5534    0.0000 C   0  0  0  0  0  0  0  0  0  0  0  0
    3.0791    1.7284    0.0000 C   0  0  0  0  0  0  0  0  0  0  0  0
    7.3659   -2.3967    0.0000 C   0  0  0  0  0  0  0  0  0  0  0  0
    7.3659   -3.2217    0.0000 C   0  0  0  0  0  0  0  0  0  0  0  0
    8.0804   -1.9842    0.0000 C   0  0  0  0  0  0  0  0  0  0  0  0
    1.6500    2.5534    0.0000 C   0  0  0  0  0  0  0  0  0  0  0  0
    8.0804   -3.6342    0.0000 C   0  0  0  0  0  0  0  0  0  0  0  0
    8.7949   -2.3967    0.0000 C   0  0  0  0  0  0  0  0  0  0  0  0
    8.7949   -3.2217    0.0000 C   0  0  0  0  0  0  0  0  0  0  0  0
    6.6515   -4.4592    0.0000 C   0  0  0  0  0  0  0  0  0  0  0  0
    5.9370   -4.8717    0.0000 C   0  0  0  0  0  0  0  0  0  0  0  0
    0.0000    0.0000    0.0000 H   0  0  0  0  0  0  0  0  0  0  0  0
    0.0000    0.0000    0.0000 H   0  0  0  0  0  0  0  0  0  0  0  0
    0.0000    0.0000    0.0000 H   0  0  0  0  0  0  0  0  0  0  0  0
    0.0000    0.0000    0.0000 H   0  0  0  0  0  0  0  0  0  0  0  0
    0.0000    0.0000    0.0000 H   0  0  0  0  0  0  0  0  0  0  0  0
    0.0000    0.0000    0.0000 H   0  0  0  0  0  0  0  0  0  0  0  0
    0.0000    0.0000    0.0000 H   0  0  0  0  0  0  0  0  0  0  0  0
    0.0000    0.0000    0.0000 H   0  0  0  0  0  0  0  0  0  0  0  0
    0.0000    0.0000    0.0000 H   0  0  0  0  0  0  0  0  0  0  0  0
    0.0000    0.0000    0.0000 H   0  0  0  0  0  0  0  0  0  0  0  0
    0.0000    0.0000    0.0000 H   0  0  0  0  0  0  0  0  0  0  0  0
    0.0000    0.0000    0.0000 H   0  0  0  0  0  0  0  0  0  0  0  0
    0.0000    0.0000    0.0000 H   0  0  0  0  0  0  0  0  0  0  0  0
    0.0000    0.0000    0.0000 H   0  0  0  0  0  0  0  0  0  0  0  0
    0.0000    0.0000    0.0000 H   0  0  0  0  0  0  0  0  0  0  0  0
    0.0000    0.0000    0.0000 H   0  0  0  0  0  0  0  0  0  0  0  0
    0.0000    0.0000    0.0000 H   0  0  0  0  0  0  0  0  0  0  0  0
    0.0000    0.0000    0.0000 H   0  0  0  0  0  0  0  0  0  0  0  0
    0.0000    0.0000    0.0000 H   0  0  0  0  0  0  0  0  0  0  0  0
    0.0000    0.0000    0.0000 H   0  0  0  0  0  0  0  0  0  0  0  0
    0.0000    0.0000    0.0000 H   0  0  0  0  0  0  0  0  0  0  0  0
    0.0000    0.0000    0.0000 H   0  0  0  0  0  0  0  0  0  0  0  0
    0.0000    0.0000    0.0000 H   0  0  0  0  0  0  0  0  0  0  0  0
    0.0000    0.0000    0.0000 H   0  0  0  0  0  0  0  0  0  0  0  0
    0.0000    0.0000    0.0000 H   0  0  0  0  0  0  0  0  0  0  0  0
    0.0000    0.0000    0.0000 H   0  0  0  0  0  0  0  0  0  0  0  0
    0.0000    0.0000    0.0000 H   0  0  0  0  0  0  0  0  0  0  0  0
    0.0000    0.0000    0.0000 H   0  0  0  0  0  0  0  0  0  0  0  0
  1  4  2  0
  1  5  2  0
  1  8  1  0
  1 15  1  0
  2 17  1  0
  2 20  1  0
  3 18  1  0
  3 23  1  0
  6 21  1  0
  6 27  1  0
  9  7  1  1
  7 13  1  0
  9 10  1  0
  9 12  1  0
 10 11  1  0
 11 14  2  0
 11 16  1  0
 13 17  1  0
 14 15  1  0
 15 18  2  0
 16 19  2  0
 18 19  1  0
 20 21  2  0
 20 22  1  0
 21 24  1  0
 22 25  2  0
 24 26  2  0
 25 26  1  0
 27 28  1  0
  7 29  1  0
  8 30  1  0
  8 31  1  0
  9 32  1  0
 10 33  1  0
 10 34  1  0
 12 35  1  0
 12 36  1  0
 12 37  1  0
 13 38  1  0
 13 39  1  0
 14 40  1  0
 16 41  1  0
 17 42  1  0
 17 43  1  0
 19 44  1  0
 22 45  1  0
 23 46  1  0
 23 47  1  0
 23 48  1  0
 24 49  1  0
 25 50  1  0
 26 51  1  0
 27 52  1  0
 27 53  1  0
 28 54  1  0
 28 55  1  0
 28 56  1  0
M  END
>  <ALOGPS_LOGP>  (1) 
3.05

>  <ALOGPS_LOGS>  (1) 
-4.79

>  <ALOGPS_SOLUBILITY>  (1) 
6.55e-03 g/l

>  <DATABASE_ID>  (1) 
DB00706

>  <DATABASE_NAME>  (1) 
drugbank

>  <DRUGBANK_ID>  (1) 
DB00706

>  <DRUG_GROUPS>  (1) 
approved; investigational

>  <EXACT_MASS>  (1) 
408.171892706

>  <FORMULA>  (1) 
C20H28N2O5S

>  <GENERIC_NAME>  (1) 
Tamsulosin

>  <INCHI_IDENTIFIER>  (1) 
InChI=1S/C20H28N2O5S/c1-4-26-17-7-5-6-8-18(17)27-12-11-22-15(2)13-16-9-10-19(25-3)20(14-16)28(21,23)24/h5-10,14-15,22H,4,11-13H2,1-3H3,(H2,21,23,24)/t15-/m1/s1

>  <INCHI_KEY>  (1) 
DRHKJLXJIQTDTD-OAHLLOKOSA-N

>  <INTERNATIONAL_BRANDS>  (1) 
Betamsal; Contiflo XL; Flomaxtra; Harnal D; Maxrin; Mecir; Omexel; Omipro; Omix; Omnic; Pradif; Ranomax; Salover; Secotex; Stronazon; Tamsact; Tamsol; Tamsul; Urimax

>  <JCHEM_ACCEPTOR_COUNT>  (1) 
6

>  <JCHEM_AVERAGE_POLARIZABILITY>  (1) 
43.95205639905195

>  <JCHEM_BIOAVAILABILITY>  (1) 
1

>  <JCHEM_DONOR_COUNT>  (1) 
2

>  <JCHEM_FORMAL_CHARGE>  (1) 
0

>  <JCHEM_GHOSE_FILTER>  (1) 
1

>  <JCHEM_IUPAC>  (1) 
5-[(2R)-2-{[2-(2-ethoxyphenoxy)ethyl]amino}propyl]-2-methoxybenzene-1-sulfonamide

>  <JCHEM_LOGP>  (1) 
2.038114116278142

>  <JCHEM_MDDR_LIKE_RULE>  (1) 
0

>  <JCHEM_NUMBER_OF_RINGS>  (1) 
2

>  <JCHEM_PHYSIOLOGICAL_CHARGE>  (1) 
1

>  <JCHEM_PKA_STRONGEST_ACIDIC>  (1) 
9.932656072654002

>  <JCHEM_PKA_STRONGEST_BASIC>  (1) 
9.284809828172845

>  <JCHEM_POLAR_SURFACE_AREA>  (1) 
99.88

>  <JCHEM_REFRACTIVITY>  (1) 
108.8649

>  <JCHEM_ROTATABLE_BOND_COUNT>  (1) 
11

>  <JCHEM_RULE_OF_FIVE>  (1) 
1

>  <JCHEM_TRADITIONAL_IUPAC>  (1) 
tamsulosin

>  <JCHEM_VEBER_RULE>  (1) 
0

>  <MOLECULAR_WEIGHT>  (1) 
408.512

>  <PRODUCTS>  (1) 
Apo-tamsulosin CR; Ava-tamsulosin CR; Dutasteride and Tamsulosin Hydrochloride; Dutasteride and tamsulosin hydrochloride; Flomax; Flomax CR; Jalyn; Jamp-tamsulosin; Mylan-tamsulosin; Ran-tamsulosin; Ratio-tamsulosin; Sandoz Tamsulosin; Sandoz Tamsulosin CR; Tamsulosin CR; Tamsulosin Hydrochloride; Tamsulosin hydrochloride; Teva-tamsulosin; Teva-tamsulosin CR; Uflo

>  <SALTS>  (1) 
Tamsulosin Hydrochloride

>  <SECONDARY_ACCESSION_NUMBERS>  (1) 
APRD00036

>  <SMILES>  (1) 
CCOC1=CC=CC=C1OCCN[C@H](C)CC1=CC(=C(OC)C=C1)S(N)(=O)=O

>  <SYNONYMS>  (1) 
Tamsulosin; Tamsulosina; Tamsulosine; Tamsulosinum

$$$$
