482
     RDKit          2D

 40 42  0  0  0  0  0  0  0  0999 V2000
    3.2149   -2.4119    0.0000 S   0  0  0  0  0  0  0  0  0  0  0  0
    1.6500    2.3402    0.0000 F   0  0  0  0  0  0  0  0  0  0  0  0
    2.9849    3.3101    0.0000 F   0  0  0  0  0  0  0  0  0  0  0  0
    1.8325    3.4926    0.0000 F   0  0  0  0  0  0  0  0  0  0  0  0
    4.0399   -2.4119    0.0000 O   0  0  0  0  0  0  0  0  0  0  0  0
    2.3899   -2.4119    0.0000 O   0  0  0  0  0  0  0  0  0  0  0  0
    3.2149    0.8882    0.0000 N   0  0  0  0  0  0  0  0  0  0  0  0
    2.5475    1.3731    0.0000 N   0  0  0  0  0  0  0  0  0  0  0  0
    3.2149   -3.2369    0.0000 N   0  0  0  0  0  0  0  0  0  0  0  0
    3.8824    1.3731    0.0000 C   0  0  0  0  0  0  0  0  0  0  0  0
    3.2149    0.0632    0.0000 C   0  0  0  0  0  0  0  0  0  0  0  0
    4.6670    1.1181    0.0000 C   0  0  0  0  0  0  0  0  0  0  0  0
    3.6274    2.1578    0.0000 C   0  0  0  0  0  0  0  0  0  0  0  0
    2.8024    2.1578    0.0000 C   0  0  0  0  0  0  0  0  0  0  0  0
    3.9294   -0.3493    0.0000 C   0  0  0  0  0  0  0  0  0  0  0  0
    2.5005   -0.3493    0.0000 C   0  0  0  0  0  0  0  0  0  0  0  0
    3.2149   -1.5868    0.0000 C   0  0  0  0  0  0  0  0  0  0  0  0
    4.8386    0.3112    0.0000 C   0  0  0  0  0  0  0  0  0  0  0  0
    5.2801    1.6702    0.0000 C   0  0  0  0  0  0  0  0  0  0  0  0
    3.9294   -1.1743    0.0000 C   0  0  0  0  0  0  0  0  0  0  0  0
    2.5005   -1.1743    0.0000 C   0  0  0  0  0  0  0  0  0  0  0  0
    6.2363    0.6083    0.0000 C   0  0  0  0  0  0  0  0  0  0  0  0
    5.6232    0.0563    0.0000 C   0  0  0  0  0  0  0  0  0  0  0  0
    6.0648    1.4152    0.0000 C   0  0  0  0  0  0  0  0  0  0  0  0
    2.3175    2.8252    0.0000 C   0  0  0  0  0  0  0  0  0  0  0  0
    7.0209    0.3534    0.0000 C   0  0  0  0  0  0  0  0  0  0  0  0
    0.0000    0.0000    0.0000 H   0  0  0  0  0  0  0  0  0  0  0  0
    0.0000    0.0000    0.0000 H   0  0  0  0  0  0  0  0  0  0  0  0
    0.0000    0.0000    0.0000 H   0  0  0  0  0  0  0  0  0  0  0  0
    0.0000    0.0000    0.0000 H   0  0  0  0  0  0  0  0  0  0  0  0
    0.0000    0.0000    0.0000 H   0  0  0  0  0  0  0  0  0  0  0  0
    0.0000    0.0000    0.0000 H   0  0  0  0  0  0  0  0  0  0  0  0
    0.0000    0.0000    0.0000 H   0  0  0  0  0  0  0  0  0  0  0  0
    0.0000    0.0000    0.0000 H   0  0  0  0  0  0  0  0  0  0  0  0
    0.0000    0.0000    0.0000 H   0  0  0  0  0  0  0  0  0  0  0  0
    0.0000    0.0000    0.0000 H   0  0  0  0  0  0  0  0  0  0  0  0
    0.0000    0.0000    0.0000 H   0  0  0  0  0  0  0  0  0  0  0  0
    0.0000    0.0000    0.0000 H   0  0  0  0  0  0  0  0  0  0  0  0
    0.0000    0.0000    0.0000 H   0  0  0  0  0  0  0  0  0  0  0  0
    0.0000    0.0000    0.0000 H   0  0  0  0  0  0  0  0  0  0  0  0
  1  5  2  0
  1  6  2  0
  1  9  1  0
  1 17  1  0
  2 25  1  0
  3 25  1  0
  4 25  1  0
  7  8  1  0
  7 10  1  0
  7 11  1  0
  8 14  2  0
 10 12  1  0
 10 13  2  0
 11 15  2  0
 11 16  1  0
 12 18  2  0
 12 19  1  0
 13 14  1  0
 14 25  1  0
 15 20  1  0
 16 21  2  0
 17 20  2  0
 17 21  1  0
 18 23  1  0
 19 24  2  0
 22 23  2  0
 22 24  1  0
 22 26  1  0
  9 27  1  0
  9 28  1  0
 13 29  1  0
 15 30  1  0
 16 31  1  0
 18 32  1  0
 19 33  1  0
 20 34  1  0
 21 35  1  0
 23 36  1  0
 24 37  1  0
 26 38  1  0
 26 39  1  0
 26 40  1  0
M  END
>  <ALOGPS_LOGP>  (1) 
3.99

>  <ALOGPS_LOGS>  (1) 
-4.88

>  <ALOGPS_SOLUBILITY>  (1) 
5.03e-03 g/l

>  <DATABASE_ID>  (1) 
DB00482

>  <DATABASE_NAME>  (1) 
drugbank

>  <DRUGBANK_ID>  (1) 
DB00482

>  <DRUG_GROUPS>  (1) 
approved; investigational

>  <EXACT_MASS>  (1) 
381.075882012

>  <FORMULA>  (1) 
C17H14F3N3O2S

>  <GENERIC_NAME>  (1) 
Celecoxib

>  <INCHI_IDENTIFIER>  (1) 
InChI=1S/C17H14F3N3O2S/c1-11-2-4-12(5-3-11)15-10-16(17(18,19)20)22-23(15)13-6-8-14(9-7-13)26(21,24)25/h2-10H,1H3,(H2,21,24,25)

>  <INCHI_KEY>  (1) 
RZEKVGVHFLEQIL-UHFFFAOYSA-N

>  <INTERNATIONAL_BRANDS>  (1) 
Articox; Articoxib; Artiflex; Artilog; Artix; Artrixib; Blockten; Caditar; Cefinix; Celact; Celebra; Onsenal; Valdyne

>  <JCHEM_ACCEPTOR_COUNT>  (1) 
3

>  <JCHEM_AVERAGE_POLARIZABILITY>  (1) 
35.200201261435936

>  <JCHEM_BIOAVAILABILITY>  (1) 
1

>  <JCHEM_DONOR_COUNT>  (1) 
1

>  <JCHEM_FORMAL_CHARGE>  (1) 
0

>  <JCHEM_GHOSE_FILTER>  (1) 
1

>  <JCHEM_IUPAC>  (1) 
4-[5-(4-methylphenyl)-3-(trifluoromethyl)-1H-pyrazol-1-yl]benzene-1-sulfonamide

>  <JCHEM_LOGP>  (1) 
4.009441774333333

>  <JCHEM_MDDR_LIKE_RULE>  (1) 
0

>  <JCHEM_NUMBER_OF_RINGS>  (1) 
3

>  <JCHEM_PHYSIOLOGICAL_CHARGE>  (1) 
0

>  <JCHEM_PKA_STRONGEST_ACIDIC>  (1) 
10.70145080874998

>  <JCHEM_PKA_STRONGEST_BASIC>  (1) 
-0.4187111614431479

>  <JCHEM_POLAR_SURFACE_AREA>  (1) 
77.98

>  <JCHEM_REFRACTIVITY>  (1) 
92.23420000000002

>  <JCHEM_ROTATABLE_BOND_COUNT>  (1) 
4

>  <JCHEM_RULE_OF_FIVE>  (1) 
1

>  <JCHEM_TRADITIONAL_IUPAC>  (1) 
celecoxib

>  <JCHEM_VEBER_RULE>  (1) 
0

>  <MOLECULAR_WEIGHT>  (1) 
381.372

>  <PRODUCTS>  (1) 
Accel-celecoxib; Act Celecoxib; Ag-celecoxib; Apo-celecoxib; Auro-celecoxib; Bio-celecoxib; Capxib; Celebrex; Celecoxib; Celecoxib 100 mg; Celecoxib 200 mg; Celecoxib 400 mg; Celecoxib 50 mg; Dom-celecoxib; Gd-celecoxib; Ipg-celecoxib; Jamp-celecoxib; LidoXib; Lupin-celecoxib; Mar-celecoxib; Mint-celecoxib; Mylan-celecoxib; Onsenal; PMS-celecoxib; Priva-celecoxib; Ran-celecoxib; Rbx-celecoxib; Riva-celecox; Riva-celecoxib; Sandoz Celecoxib; Sdz Celecoxib; Teva-celecoxib

>  <SECONDARY_ACCESSION_NUMBERS>  (1) 
APRD00373

>  <SMILES>  (1) 
CC1=CC=C(C=C1)C1=CC(=NN1C1=CC=C(C=C1)S(N)(=O)=O)C(F)(F)F

>  <SYNONYMS>  (1) 
Celecoxib; Célécoxib; Celecoxibum

$$$$
