307
     RDKit          2D

 54 56  0  0  0  0  0  0  0  0999 V2000
    5.9770   -2.7941    0.0000 O   0  0  0  0  0  0  0  0  0  0  0  0
    4.5481   -2.7886    0.0000 O   0  0  0  0  0  0  0  0  0  0  0  0
    2.3645    0.9411    0.0000 C   0  0  0  0  0  0  0  0  0  0  0  0
    2.3645    2.5911    0.0000 C   0  0  0  0  0  0  0  0  0  0  0  0
    1.6500    1.3536    0.0000 C   0  0  0  0  0  0  0  0  0  0  0  0
    1.6500    2.1786    0.0000 C   0  0  0  0  0  0  0  0  0  0  0  0
    3.0790    1.3536    0.0000 C   0  0  0  0  0  0  0  0  0  0  0  0
    3.0790    2.1786    0.0000 C   0  0  0  0  0  0  0  0  0  0  0  0
    1.9520    0.2266    0.0000 C   0  0  0  0  0  0  0  0  0  0  0  0
    2.7770    0.2266    0.0000 C   0  0  0  0  0  0  0  0  0  0  0  0
    1.9520    3.3056    0.0000 C   0  0  0  0  0  0  0  0  0  0  0  0
    2.7770    3.3056    0.0000 C   0  0  0  0  0  0  0  0  0  0  0  0
    3.8165    0.9125    0.0000 C   0  0  0  0  0  0  0  0  0  0  0  0
    3.8165    2.6197    0.0000 C   0  0  0  0  0  0  0  0  0  0  0  0
    4.5640    1.3364    0.0000 C   0  0  0  0  0  0  0  0  0  0  0  0
    4.5640    2.1958    0.0000 C   0  0  0  0  0  0  0  0  0  0  0  0
    5.2769    0.9212    0.0000 C   0  0  0  0  0  0  0  0  0  0  0  0
    5.2769    2.6111    0.0000 C   0  0  0  0  0  0  0  0  0  0  0  0
    5.2737    0.0962    0.0000 C   0  0  0  0  0  0  0  0  0  0  0  0
    5.9929    1.3309    0.0000 C   0  0  0  0  0  0  0  0  0  0  0  0
    4.5577   -0.3136    0.0000 C   0  0  0  0  0  0  0  0  0  0  0  0
    5.9866   -0.3191    0.0000 C   0  0  0  0  0  0  0  0  0  0  0  0
    4.5545   -1.1386    0.0000 C   0  0  0  0  0  0  0  0  0  0  0  0
    5.9834   -1.1441    0.0000 C   0  0  0  0  0  0  0  0  0  0  0  0
    5.2673   -1.5538    0.0000 C   0  0  0  0  0  0  0  0  0  0  0  0
    5.2641   -2.3788    0.0000 C   0  0  0  0  0  0  0  0  0  0  0  0
    0.0000    0.0000    0.0000 H   0  0  0  0  0  0  0  0  0  0  0  0
    0.0000    0.0000    0.0000 H   0  0  0  0  0  0  0  0  0  0  0  0
    0.0000    0.0000    0.0000 H   0  0  0  0  0  0  0  0  0  0  0  0
    0.0000    0.0000    0.0000 H   0  0  0  0  0  0  0  0  0  0  0  0
    0.0000    0.0000    0.0000 H   0  0  0  0  0  0  0  0  0  0  0  0
    0.0000    0.0000    0.0000 H   0  0  0  0  0  0  0  0  0  0  0  0
    0.0000    0.0000    0.0000 H   0  0  0  0  0  0  0  0  0  0  0  0
    0.0000    0.0000    0.0000 H   0  0  0  0  0  0  0  0  0  0  0  0
    0.0000    0.0000    0.0000 H   0  0  0  0  0  0  0  0  0  0  0  0
    0.0000    0.0000    0.0000 H   0  0  0  0  0  0  0  0  0  0  0  0
    0.0000    0.0000    0.0000 H   0  0  0  0  0  0  0  0  0  0  0  0
    0.0000    0.0000    0.0000 H   0  0  0  0  0  0  0  0  0  0  0  0
    0.0000    0.0000    0.0000 H   0  0  0  0  0  0  0  0  0  0  0  0
    0.0000    0.0000    0.0000 H   0  0  0  0  0  0  0  0  0  0  0  0
    0.0000    0.0000    0.0000 H   0  0  0  0  0  0  0  0  0  0  0  0
    0.0000    0.0000    0.0000 H   0  0  0  0  0  0  0  0  0  0  0  0
    0.0000    0.0000    0.0000 H   0  0  0  0  0  0  0  0  0  0  0  0
    0.0000    0.0000    0.0000 H   0  0  0  0  0  0  0  0  0  0  0  0
    0.0000    0.0000    0.0000 H   0  0  0  0  0  0  0  0  0  0  0  0
    0.0000    0.0000    0.0000 H   0  0  0  0  0  0  0  0  0  0  0  0
    0.0000    0.0000    0.0000 H   0  0  0  0  0  0  0  0  0  0  0  0
    0.0000    0.0000    0.0000 H   0  0  0  0  0  0  0  0  0  0  0  0
    0.0000    0.0000    0.0000 H   0  0  0  0  0  0  0  0  0  0  0  0
    0.0000    0.0000    0.0000 H   0  0  0  0  0  0  0  0  0  0  0  0
    0.0000    0.0000    0.0000 H   0  0  0  0  0  0  0  0  0  0  0  0
    0.0000    0.0000    0.0000 H   0  0  0  0  0  0  0  0  0  0  0  0
    0.0000    0.0000    0.0000 H   0  0  0  0  0  0  0  0  0  0  0  0
    0.0000    0.0000    0.0000 H   0  0  0  0  0  0  0  0  0  0  0  0
  1 26  1  0
  2 26  2  0
  3  5  1  0
  3  7  1  0
  3  9  1  0
  3 10  1  0
  4  6  1  0
  4  8  1  0
  4 11  1  0
  4 12  1  0
  5  6  1  0
  7  8  2  0
  7 13  1  0
  8 14  1  0
 13 15  2  0
 14 16  2  0
 15 16  1  0
 15 17  1  0
 16 18  1  0
 17 19  1  0
 17 20  2  3
 19 21  2  0
 19 22  1  0
 21 23  1  0
 22 24  2  0
 23 25  2  0
 24 25  1  0
 25 26  1  0
  1 27  1  0
  5 28  1  0
  5 29  1  0
  6 30  1  0
  6 31  1  0
  9 32  1  0
  9 33  1  0
  9 34  1  0
 10 35  1  0
 10 36  1  0
 10 37  1  0
 11 38  1  0
 11 39  1  0
 11 40  1  0
 12 41  1  0
 12 42  1  0
 12 43  1  0
 13 44  1  0
 14 45  1  0
 18 46  1  0
 18 47  1  0
 18 48  1  0
 20 49  1  0
 20 50  1  0
 21 51  1  0
 22 52  1  0
 23 53  1  0
 24 54  1  0
M  END
>  <ALOGPS_LOGP>  (1) 
6.86

>  <ALOGPS_LOGS>  (1) 
-6.37

>  <ALOGPS_SOLUBILITY>  (1) 
1.49e-04 g/l

>  <DATABASE_ID>  (1) 
DB00307

>  <DATABASE_NAME>  (1) 
drugbank

>  <DRUGBANK_ID>  (1) 
DB00307

>  <DRUG_GROUPS>  (1) 
approved; investigational

>  <EXACT_MASS>  (1) 
348.20893014

>  <FORMULA>  (1) 
C24H28O2

>  <GENERIC_NAME>  (1) 
Bexarotene

>  <INCHI_IDENTIFIER>  (1) 
InChI=1S/C24H28O2/c1-15-13-20-21(24(5,6)12-11-23(20,3)4)14-19(15)16(2)17-7-9-18(10-8-17)22(25)26/h7-10,13-14H,2,11-12H2,1,3-6H3,(H,25,26)

>  <INCHI_KEY>  (1) 
NAVMQTYZDKMPEU-UHFFFAOYSA-N

>  <JCHEM_ACCEPTOR_COUNT>  (1) 
2

>  <JCHEM_AVERAGE_POLARIZABILITY>  (1) 
40.89246091735121

>  <JCHEM_BIOAVAILABILITY>  (1) 
1

>  <JCHEM_DONOR_COUNT>  (1) 
1

>  <JCHEM_FORMAL_CHARGE>  (1) 
0

>  <JCHEM_GHOSE_FILTER>  (1) 
0

>  <JCHEM_IUPAC>  (1) 
4-[1-(3,5,5,8,8-pentamethyl-5,6,7,8-tetrahydronaphthalen-2-yl)ethenyl]benzoic acid

>  <JCHEM_LOGP>  (1) 
6.940537397666667

>  <JCHEM_MDDR_LIKE_RULE>  (1) 
0

>  <JCHEM_NUMBER_OF_RINGS>  (1) 
3

>  <JCHEM_PHYSIOLOGICAL_CHARGE>  (1) 
-1

>  <JCHEM_PKA_STRONGEST_ACIDIC>  (1) 
4.070792459533179

>  <JCHEM_POLAR_SURFACE_AREA>  (1) 
37.3

>  <JCHEM_REFRACTIVITY>  (1) 
117.124

>  <JCHEM_ROTATABLE_BOND_COUNT>  (1) 
3

>  <JCHEM_RULE_OF_FIVE>  (1) 
0

>  <JCHEM_TRADITIONAL_IUPAC>  (1) 
bexarotene

>  <JCHEM_VEBER_RULE>  (1) 
1

>  <MOLECULAR_WEIGHT>  (1) 
348.4779

>  <PRODUCTS>  (1) 
Bexarotene; Targretin

>  <SECONDARY_ACCESSION_NUMBERS>  (1) 
APRD00114

>  <SMILES>  (1) 
CC1=CC2=C(C=C1C(=C)C1=CC=C(C=C1)C(O)=O)C(C)(C)CCC2(C)C

>  <SYNONYMS>  (1) 
4-[1-(3,5,5,8,8-pentamethyltetralin-2-yl)ethenyl]benzoic acid; 4-[1-(5,6,7,8,-Tetrahydro-3,5,5,8,8-pentamethyl-2-naphtalenyl)ethenyl]benzoic acid; Bexaroten; Bexarot√®ne; Bexarotene; Bexarotenum; p-[1-(5,6,7,8,-Tetrahydro-3,5,5,8,8-pentamethyl-2-naphthyl)vinyl]benzoic acid; Targretyn; Targrexin

$$$$
