40839
     RDKit          2D

110118  0  0  1  0  0  0  0  0999 V2000
    6.6644   -2.6737    0.0000 O   0  0  0  0  0  0  0  0  0  0  0  0
    5.6186   -4.2863    0.0000 O   0  0  0  0  0  0  0  0  0  0  0  0
    6.3213   -4.2877    0.0000 O   0  0  0  0  0  0  0  0  0  0  0  0
    6.7488    1.0310    0.0000 O   0  0  0  0  0  0  0  0  0  0  0  0
    5.3864   -0.0523    0.0000 O   0  0  0  0  0  0  0  0  0  0  0  0
    4.3264   -0.0152    0.0000 O   0  0  0  0  0  0  0  0  0  0  0  0
    7.5845    4.2875    0.0000 O   0  0  0  0  0  0  0  0  0  0  0  0
    3.6168   -2.4477    0.0000 N   0  0  0  0  0  0  0  0  0  0  0  0
    6.1574   -1.6221    0.0000 N   0  0  0  0  0  0  0  0  0  0  0  0
    7.2774   -3.2257    0.0000 N   0  0  0  0  0  0  0  0  0  0  0  0
    5.6815    3.6865    0.0000 N   0  0  0  0  0  0  0  0  0  0  0  0
    3.8513    1.0835    0.0000 N   0  0  0  0  0  0  0  0  0  0  0  0
    4.8871   -2.0348    0.0000 C   0  0  0  0  0  0  0  0  0  0  0  0
    4.3710   -2.6079    0.0000 C   0  0  0  0  0  0  0  0  0  0  0  0
    5.6414   -2.1953    0.0000 C   0  0  0  0  0  0  0  0  0  0  0  0
    4.6094   -3.3413    0.0000 C   0  0  0  0  0  0  0  0  0  0  0  0
    5.8797   -2.9286    0.0000 C   0  0  0  0  0  0  0  0  0  0  0  0
    4.5693   -1.1805    0.0000 C   0  0  0  0  0  0  0  0  0  0  0  0
    5.3637   -3.5017    0.0000 C   0  0  0  0  0  0  0  0  0  0  0  0
    5.1648   -0.7284    0.0000 C   0  0  0  0  0  0  0  0  0  0  0  0
    3.3784   -1.7142    0.0000 C   0  0  0  0  0  0  0  0  0  0  0  0
    4.8643   -4.1261    0.0000 C   0  0  0  0  0  0  0  0  0  0  0  0
    5.9191   -0.8887    0.0000 C   0  0  0  0  0  0  0  0  0  0  0  0
    4.0933   -3.9144    0.0000 C   0  0  0  0  0  0  0  0  0  0  0  0
    3.1007   -3.0206    0.0000 C   0  0  0  0  0  0  0  0  0  0  0  0
    3.3391   -3.7541    0.0000 C   0  0  0  0  0  0  0  0  0  0  0  0
    6.4928   -3.4806    0.0000 C   0  0  0  0  0  0  0  0  0  0  0  0
    4.9265    0.0051    0.0000 C   0  0  0  0  0  0  0  0  0  0  0  0
    6.9420   -1.3672    0.0000 C   0  0  0  0  0  0  0  0  0  0  0  0
    6.4351   -0.3155    0.0000 C   0  0  0  0  0  0  0  0  0  0  0  0
    4.3123   -4.7391    0.0000 C   0  0  0  0  0  0  0  0  0  0  0  0
    5.4425    0.5782    0.0000 C   0  0  0  0  0  0  0  0  0  0  0  0
    6.1968    0.4178    0.0000 C   0  0  0  0  0  0  0  0  0  0  0  0
    5.1876    1.3628    0.0000 C   0  0  0  0  0  0  0  0  0  0  0  0
    5.9722    1.6178    0.0000 C   0  0  0  0  0  0  0  0  0  0  0  0
    4.4226    1.6719    0.0000 C   0  0  0  0  0  0  0  0  0  0  0  0
    6.4094    2.3174    0.0000 C   0  0  0  0  0  0  0  0  0  0  0  0
    4.8785    0.5979    0.0000 C   0  0  0  0  0  0  0  0  0  0  0  0
    7.1315    2.7475    0.0000 C   0  0  0  0  0  0  0  0  0  0  0  0
    6.2946    3.1345    0.0000 C   0  0  0  0  0  0  0  0  0  0  0  0
    4.0352    2.4003    0.0000 C   0  0  0  0  0  0  0  0  0  0  0  0
    7.1473    3.5878    0.0000 C   0  0  0  0  0  0  0  0  0  0  0  0
    6.4418    4.0447    0.0000 C   0  0  0  0  0  0  0  0  0  0  0  0
    4.2068    3.2073    0.0000 C   0  0  0  0  0  0  0  0  0  0  0  0
    4.8569    3.7153    0.0000 C   0  0  0  0  0  0  0  0  0  0  0  0
    3.2279    2.2558    0.0000 C   0  0  0  0  0  0  0  0  0  0  0  0
    7.5559    0.8594    0.0000 C   0  0  0  0  0  0  0  0  0  0  0  0
    3.1145    1.4435    0.0000 C   0  0  0  0  0  0  0  0  0  0  0  0
    7.9718    3.5590    0.0000 C   0  0  0  0  0  0  0  0  0  0  0  0
    2.5625    2.7915    0.0000 C   0  0  0  0  0  0  0  0  0  0  0  0
    2.3278    1.1107    0.0000 C   0  0  0  0  0  0  0  0  0  0  0  0
    8.4090    4.2587    0.0000 C   0  0  0  0  0  0  0  0  0  0  0  0
    6.3260    0.0798    0.0000 C   0  0  0  0  0  0  0  0  0  0  0  0
    1.7682    2.4769    0.0000 C   0  0  0  0  0  0  0  0  0  0  0  0
    1.6501    1.6308    0.0000 C   0  0  0  0  0  0  0  0  0  0  0  0
    0.0000    0.0000    0.0000 H   0  0  0  0  0  0  0  0  0  0  0  0
    0.0000    0.0000    0.0000 H   0  0  0  0  0  0  0  0  0  0  0  0
    0.0000    0.0000    0.0000 H   0  0  0  0  0  0  0  0  0  0  0  0
    0.0000    0.0000    0.0000 H   0  0  0  0  0  0  0  0  0  0  0  0
    0.0000    0.0000    0.0000 H   0  0  0  0  0  0  0  0  0  0  0  0
    0.0000    0.0000    0.0000 H   0  0  0  0  0  0  0  0  0  0  0  0
    0.0000    0.0000    0.0000 H   0  0  0  0  0  0  0  0  0  0  0  0
    0.0000    0.0000    0.0000 H   0  0  0  0  0  0  0  0  0  0  0  0
    0.0000    0.0000    0.0000 H   0  0  0  0  0  0  0  0  0  0  0  0
    0.0000    0.0000    0.0000 H   0  0  0  0  0  0  0  0  0  0  0  0
    0.0000    0.0000    0.0000 H   0  0  0  0  0  0  0  0  0  0  0  0
    0.0000    0.0000    0.0000 H   0  0  0  0  0  0  0  0  0  0  0  0
    0.0000    0.0000    0.0000 H   0  0  0  0  0  0  0  0  0  0  0  0
    0.0000    0.0000    0.0000 H   0  0  0  0  0  0  0  0  0  0  0  0
    0.0000    0.0000    0.0000 H   0  0  0  0  0  0  0  0  0  0  0  0
    0.0000    0.0000    0.0000 H   0  0  0  0  0  0  0  0  0  0  0  0
    0.0000    0.0000    0.0000 H   0  0  0  0  0  0  0  0  0  0  0  0
    0.0000    0.0000    0.0000 H   0  0  0  0  0  0  0  0  0  0  0  0
    0.0000    0.0000    0.0000 H   0  0  0  0  0  0  0  0  0  0  0  0
    0.0000    0.0000    0.0000 H   0  0  0  0  0  0  0  0  0  0  0  0
    0.0000    0.0000    0.0000 H   0  0  0  0  0  0  0  0  0  0  0  0
    0.0000    0.0000    0.0000 H   0  0  0  0  0  0  0  0  0  0  0  0
    0.0000    0.0000    0.0000 H   0  0  0  0  0  0  0  0  0  0  0  0
    0.0000    0.0000    0.0000 H   0  0  0  0  0  0  0  0  0  0  0  0
    0.0000    0.0000    0.0000 H   0  0  0  0  0  0  0  0  0  0  0  0
    0.0000    0.0000    0.0000 H   0  0  0  0  0  0  0  0  0  0  0  0
    0.0000    0.0000    0.0000 H   0  0  0  0  0  0  0  0  0  0  0  0
    0.0000    0.0000    0.0000 H   0  0  0  0  0  0  0  0  0  0  0  0
    0.0000    0.0000    0.0000 H   0  0  0  0  0  0  0  0  0  0  0  0
    0.0000    0.0000    0.0000 H   0  0  0  0  0  0  0  0  0  0  0  0
    0.0000    0.0000    0.0000 H   0  0  0  0  0  0  0  0  0  0  0  0
    0.0000    0.0000    0.0000 H   0  0  0  0  0  0  0  0  0  0  0  0
    0.0000    0.0000    0.0000 H   0  0  0  0  0  0  0  0  0  0  0  0
    0.0000    0.0000    0.0000 H   0  0  0  0  0  0  0  0  0  0  0  0
    0.0000    0.0000    0.0000 H   0  0  0  0  0  0  0  0  0  0  0  0
    0.0000    0.0000    0.0000 H   0  0  0  0  0  0  0  0  0  0  0  0
    0.0000    0.0000    0.0000 H   0  0  0  0  0  0  0  0  0  0  0  0
    0.0000    0.0000    0.0000 H   0  0  0  0  0  0  0  0  0  0  0  0
    0.0000    0.0000    0.0000 H   0  0  0  0  0  0  0  0  0  0  0  0
    0.0000    0.0000    0.0000 H   0  0  0  0  0  0  0  0  0  0  0  0
    0.0000    0.0000    0.0000 H   0  0  0  0  0  0  0  0  0  0  0  0
    0.0000    0.0000    0.0000 H   0  0  0  0  0  0  0  0  0  0  0  0
    0.0000    0.0000    0.0000 H   0  0  0  0  0  0  0  0  0  0  0  0
    0.0000    0.0000    0.0000 H   0  0  0  0  0  0  0  0  0  0  0  0
    0.0000    0.0000    0.0000 H   0  0  0  0  0  0  0  0  0  0  0  0
    0.0000    0.0000    0.0000 H   0  0  0  0  0  0  0  0  0  0  0  0
    0.0000    0.0000    0.0000 H   0  0  0  0  0  0  0  0  0  0  0  0
    0.0000    0.0000    0.0000 H   0  0  0  0  0  0  0  0  0  0  0  0
    0.0000    0.0000    0.0000 H   0  0  0  0  0  0  0  0  0  0  0  0
    0.0000    0.0000    0.0000 H   0  0  0  0  0  0  0  0  0  0  0  0
    0.0000    0.0000    0.0000 H   0  0  0  0  0  0  0  0  0  0  0  0
    0.0000    0.0000    0.0000 H   0  0  0  0  0  0  0  0  0  0  0  0
    0.0000    0.0000    0.0000 H   0  0  0  0  0  0  0  0  0  0  0  0
    0.0000    0.0000    0.0000 H   0  0  0  0  0  0  0  0  0  0  0  0
    0.0000    0.0000    0.0000 H   0  0  0  0  0  0  0  0  0  0  0  0
 17  1  1  6
 19  2  1  1
  3 27  2  0
  4 33  1  0
  4 47  1  0
  5 38  1  0
  5 53  1  0
  6 38  2  0
 42  7  1  1
  8 14  1  0
  8 21  1  0
  8 25  1  0
  9 15  1  0
  9 23  1  0
  9 29  1  0
 10 27  1  0
 11 40  1  0
 11 43  1  0
 11 45  1  0
 12 36  1  0
 12 48  1  0
 13 14  1  0
 13 15  1  0
 13 18  1  6
 13 20  1  0
 14 16  1  0
 15 17  1  0
 16 19  1  0
 16 22  1  1
 16 24  1  0
 17 19  1  0
 17 27  1  0
 18 21  1  0
 20 23  2  0
 20 28  1  0
 22 31  1  0
 23 30  1  0
 24 26  2  0
 25 26  1  0
 28 32  2  0
 30 33  2  0
 32 33  1  0
 34 32  1  6
 34 35  1  0
 34 36  1  0
 34 38  1  0
 35 37  1  0
 36 41  2  0
 37 39  1  0
 37 40  1  0
 39 42  1  0
 41 44  1  0
 41 46  1  0
 42 43  1  0
 42 49  1  0
 44 45  1  0
 46 48  2  0
 46 50  1  0
 48 51  1  0
 49 52  1  0
 50 54  2  0
 51 55  2  0
 54 55  1  0
  1 56  1  0
  2 57  1  0
  7 58  1  0
 10 59  1  0
 10 60  1  0
 12 61  1  0
 14 62  1  1
 15 63  1  6
 18 64  1  0
 18 65  1  0
 19 66  1  0
 21 67  1  0
 21 68  1  0
 22 69  1  0
 22 70  1  0
 24 71  1  0
 25 72  1  0
 25 73  1  0
 26 74  1  0
 28 75  1  0
 29 76  1  0
 29 77  1  0
 29 78  1  0
 30 79  1  0
 31 80  1  0
 31 81  1  0
 31 82  1  0
 35 83  1  0
 35 84  1  0
 37 85  1  1
 39 86  1  0
 39 87  1  0
 40 88  1  0
 40 89  1  0
 43 90  1  0
 43 91  1  0
 44 92  1  0
 44 93  1  0
 45 94  1  0
 45 95  1  0
 47 96  1  0
 47 97  1  0
 47 98  1  0
 49 99  1  0
 49100  1  0
 50101  1  0
 51102  1  0
 52103  1  0
 52104  1  0
 52105  1  0
 53106  1  0
 53107  1  0
 53108  1  0
 54109  1  0
 55110  1  0
M  END
>  <ALOGPS_LOGP>  (1) 
3.53

>  <ALOGPS_LOGS>  (1) 
-4.03

>  <ALOGPS_SOLUBILITY>  (1) 
7.00e-02 g/l

>  <DATABASE_ID>  (1) 
DB00309

>  <DATABASE_NAME>  (1) 
drugbank

>  <DRUGBANK_ID>  (1) 
DB00309

>  <DRUG_GROUPS>  (1) 
approved; investigational

>  <EXACT_MASS>  (1) 
753.410149139

>  <FORMULA>  (1) 
C43H55N5O7

>  <GENERIC_NAME>  (1) 
Vindesine

>  <INCHI_IDENTIFIER>  (1) 
InChI=1S/C43H55N5O7/c1-6-39(52)21-25-22-42(38(51)55-5,33-27(13-17-47(23-25)24-39)26-11-8-9-12-30(26)45-33)29-19-28-31(20-32(29)54-4)46(3)35-41(28)15-18-48-16-10-14-40(7-2,34(41)48)36(49)43(35,53)37(44)50/h8-12,14,19-20,25,34-36,45,49,52-53H,6-7,13,15-18,21-24H2,1-5H3,(H2,44,50)/t25-,34+,35-,36-,39+,40-,41-,42+,43+/m1/s1

>  <INCHI_KEY>  (1) 
HHJUWIANJFBDHT-KOTLKJBCSA-N

>  <INTERNATIONAL_BRANDS>  (1) 
Eldesine; Eldisine

>  <JCHEM_ACCEPTOR_COUNT>  (1) 
9

>  <JCHEM_AVERAGE_POLARIZABILITY>  (1) 
82.57508559580496

>  <JCHEM_BIOAVAILABILITY>  (1) 
1

>  <JCHEM_DONOR_COUNT>  (1) 
5

>  <JCHEM_FORMAL_CHARGE>  (1) 
0

>  <JCHEM_GHOSE_FILTER>  (1) 
0

>  <JCHEM_IUPAC>  (1) 
methyl (13S,15S,17S)-13-[(1R,9R,10S,11R,12R,19R)-10-carbamoyl-12-ethyl-10,11-dihydroxy-5-methoxy-8-methyl-8,16-diazapentacyclo[10.6.1.0¹,⁹.0²,⁷.0¹⁶,¹⁹]nonadeca-2,4,6,13-tetraen-4-yl]-17-ethyl-17-hydroxy-1,11-diazatetracyclo[13.3.1.0⁴,¹².0⁵,¹⁰]nonadeca-4(12),5,7,9-tetraene-13-carboxylate

>  <JCHEM_LOGP>  (1) 
2.789183207999999

>  <JCHEM_MDDR_LIKE_RULE>  (1) 
1

>  <JCHEM_NUMBER_OF_RINGS>  (1) 
9

>  <JCHEM_PHYSIOLOGICAL_CHARGE>  (1) 
2

>  <JCHEM_PKA>  (1) 
13.861704060660191

>  <JCHEM_PKA_STRONGEST_ACIDIC>  (1) 
11.342997458827782

>  <JCHEM_PKA_STRONGEST_BASIC>  (1) 
8.676353628093905

>  <JCHEM_POLAR_SURFACE_AREA>  (1) 
164.82

>  <JCHEM_REFRACTIVITY>  (1) 
210.32219999999995

>  <JCHEM_ROTATABLE_BOND_COUNT>  (1) 
7

>  <JCHEM_RULE_OF_FIVE>  (1) 
0

>  <JCHEM_TRADITIONAL_IUPAC>  (1) 
vindesine

>  <JCHEM_VEBER_RULE>  (1) 
0

>  <MOLECULAR_WEIGHT>  (1) 
753.9261

>  <PRODUCTS>  (1) 
Eldisine Inj 5mg/2ml

>  <SALTS>  (1) 
Vindesine Sulfate

>  <SECONDARY_ACCESSION_NUMBERS>  (1) 
APRD00392

>  <SMILES>  (1) 
[H][C@@]12N3CC[C@@]11C4=CC(=C(OC)C=C4N(C)[C@@]1([H])[C@](O)([C@H](O)[C@]2(CC)C=CC3)C(N)=O)[C@]1(C[C@]2([H])CN(C[C@](O)(CC)C2)CCC2=C1NC1=CC=CC=C21)C(=O)OC

>  <SYNONYMS>  (1) 
Desacetylvinblastine amide

$$$$
