674
     RDKit          2D

 42 45  0  0  1  0  0  0  0  0999 V2000
    4.2096   -1.4415    0.0000 O   0  0  0  0  0  0  0  0  0  0  0  0
    7.3588   -1.5573    0.0000 O   0  0  0  0  0  0  0  0  0  0  0  0
    2.4433   -1.0636    0.0000 O   0  0  0  0  0  0  0  0  0  0  0  0
    5.5414    1.3240    0.0000 N   0  0  0  0  0  0  0  0  0  0  0  0
    5.1288   -0.4833    0.0000 C   0  0  0  0  0  0  0  0  0  0  0  0
    5.8105   -0.0186    0.0000 C   0  0  0  0  0  0  0  0  0  0  0  0
    4.3855   -0.1254    0.0000 C   0  0  0  0  0  0  0  0  0  0  0  0
    5.8722   -0.1254    0.0000 C   0  0  0  0  0  0  0  0  0  0  0  0
    6.5538   -0.3765    0.0000 C   0  0  0  0  0  0  0  0  0  0  0  0
    5.1905   -1.3061    0.0000 C   0  0  0  0  0  0  0  0  0  0  0  0
    3.8202   -0.7197    0.0000 C   0  0  0  0  0  0  0  0  0  0  0  0
    6.0558    0.6790    0.0000 C   0  0  0  0  0  0  0  0  0  0  0  0
    4.2019    0.6790    0.0000 C   0  0  0  0  0  0  0  0  0  0  0  0
    6.6155   -1.1993    0.0000 C   0  0  0  0  0  0  0  0  0  0  0  0
    4.7163    1.3240    0.0000 C   0  0  0  0  0  0  0  0  0  0  0  0
    5.9338   -1.6640    0.0000 C   0  0  0  0  0  0  0  0  0  0  0  0
    3.0365   -0.4902    0.0000 C   0  0  0  0  0  0  0  0  0  0  0  0
    3.4101    0.8794    0.0000 C   0  0  0  0  0  0  0  0  0  0  0  0
    2.8335    0.3010    0.0000 C   0  0  0  0  0  0  0  0  0  0  0  0
    5.8993    2.0674    0.0000 C   0  0  0  0  0  0  0  0  0  0  0  0
    1.6501   -0.8367    0.0000 C   0  0  0  0  0  0  0  0  0  0  0  0
    0.0000    0.0000    0.0000 H   0  0  0  0  0  0  0  0  0  0  0  0
    0.0000    0.0000    0.0000 H   0  0  0  0  0  0  0  0  0  0  0  0
    0.0000    0.0000    0.0000 H   0  0  0  0  0  0  0  0  0  0  0  0
    0.0000    0.0000    0.0000 H   0  0  0  0  0  0  0  0  0  0  0  0
    0.0000    0.0000    0.0000 H   0  0  0  0  0  0  0  0  0  0  0  0
    0.0000    0.0000    0.0000 H   0  0  0  0  0  0  0  0  0  0  0  0
    0.0000    0.0000    0.0000 H   0  0  0  0  0  0  0  0  0  0  0  0
    0.0000    0.0000    0.0000 H   0  0  0  0  0  0  0  0  0  0  0  0
    0.0000    0.0000    0.0000 H   0  0  0  0  0  0  0  0  0  0  0  0
    0.0000    0.0000    0.0000 H   0  0  0  0  0  0  0  0  0  0  0  0
    0.0000    0.0000    0.0000 H   0  0  0  0  0  0  0  0  0  0  0  0
    0.0000    0.0000    0.0000 H   0  0  0  0  0  0  0  0  0  0  0  0
    0.0000    0.0000    0.0000 H   0  0  0  0  0  0  0  0  0  0  0  0
    0.0000    0.0000    0.0000 H   0  0  0  0  0  0  0  0  0  0  0  0
    0.0000    0.0000    0.0000 H   0  0  0  0  0  0  0  0  0  0  0  0
    0.0000    0.0000    0.0000 H   0  0  0  0  0  0  0  0  0  0  0  0
    0.0000    0.0000    0.0000 H   0  0  0  0  0  0  0  0  0  0  0  0
    0.0000    0.0000    0.0000 H   0  0  0  0  0  0  0  0  0  0  0  0
    0.0000    0.0000    0.0000 H   0  0  0  0  0  0  0  0  0  0  0  0
    0.0000    0.0000    0.0000 H   0  0  0  0  0  0  0  0  0  0  0  0
    0.0000    0.0000    0.0000 H   0  0  0  0  0  0  0  0  0  0  0  0
  1  6  1  0
  1 11  1  0
 14  2  1  6
  3 17  1  0
  3 21  1  0
  4 12  1  0
  4 15  1  0
  4 20  1  0
  5  6  1  0
  5  7  1  0
  5  8  1  6
  5 10  1  0
  6  9  1  0
  7 11  2  0
  7 13  1  0
  8 12  1  0
  9 14  1  0
 10 16  2  0
 11 17  1  0
 13 15  1  0
 13 18  2  0
 14 16  1  0
 17 19  2  0
 18 19  1  0
  2 22  1  0
  6 23  1  1
  8 24  1  0
  8 25  1  0
  9 26  1  0
  9 27  1  0
 10 28  1  0
 12 29  1  0
 12 30  1  0
 14 31  1  0
 15 32  1  0
 15 33  1  0
 16 34  1  0
 18 35  1  0
 19 36  1  0
 20 37  1  0
 20 38  1  0
 20 39  1  0
 21 40  1  0
 21 41  1  0
 21 42  1  0
M  END
>  <ALOGPS_LOGP>  (1) 
1.39

>  <ALOGPS_LOGS>  (1) 
-2.23

>  <ALOGPS_SOLUBILITY>  (1) 
1.70e+00 g/l

>  <DATABASE_ID>  (1) 
DB00674

>  <DATABASE_NAME>  (1) 
drugbank

>  <DRUGBANK_ID>  (1) 
DB00674

>  <DRUG_GROUPS>  (1) 
approved

>  <EXACT_MASS>  (1) 
287.152143543

>  <FORMULA>  (1) 
C17H21NO3

>  <GENERIC_NAME>  (1) 
Galantamine

>  <INCHI_IDENTIFIER>  (1) 
InChI=1S/C17H21NO3/c1-18-8-7-17-6-5-12(19)9-14(17)21-16-13(20-2)4-3-11(10-18)15(16)17/h3-6,12,14,19H,7-10H2,1-2H3/t12-,14-,17-/m0/s1

>  <INCHI_KEY>  (1) 
ASUTZQLVASHGKV-JDFRZJQESA-N

>  <INTERNATIONAL_BRANDS>  (1) 
Lycoremine; Nivalin; Reminyl

>  <JCHEM_ACCEPTOR_COUNT>  (1) 
4

>  <JCHEM_AVERAGE_POLARIZABILITY>  (1) 
31.402295977028217

>  <JCHEM_BIOAVAILABILITY>  (1) 
1

>  <JCHEM_DONOR_COUNT>  (1) 
1

>  <JCHEM_FORMAL_CHARGE>  (1) 
0

>  <JCHEM_GHOSE_FILTER>  (1) 
1

>  <JCHEM_IUPAC>  (1) 
(1S,12S,14R)-9-methoxy-4-methyl-11-oxa-4-azatetracyclo[8.6.1.0¹,¹².0⁶,¹⁷]heptadeca-6(17),7,9,15-tetraen-14-ol

>  <JCHEM_LOGP>  (1) 
1.163042803666667

>  <JCHEM_MDDR_LIKE_RULE>  (1) 
0

>  <JCHEM_NUMBER_OF_RINGS>  (1) 
4

>  <JCHEM_PHYSIOLOGICAL_CHARGE>  (1) 
1

>  <JCHEM_PKA_STRONGEST_ACIDIC>  (1) 
14.810376678600381

>  <JCHEM_PKA_STRONGEST_BASIC>  (1) 
8.90951741506554

>  <JCHEM_POLAR_SURFACE_AREA>  (1) 
41.93

>  <JCHEM_REFRACTIVITY>  (1) 
82.3049

>  <JCHEM_ROTATABLE_BOND_COUNT>  (1) 
1

>  <JCHEM_RULE_OF_FIVE>  (1) 
1

>  <JCHEM_TRADITIONAL_IUPAC>  (1) 
galantamine

>  <JCHEM_VEBER_RULE>  (1) 
0

>  <MOLECULAR_WEIGHT>  (1) 
287.3535

>  <PRODUCTS>  (1) 
Apo-galantamine; Auro-galantamine ER; Galantamine; Galantamine ER; Galantamine Hydrobromide; Galantamine hydrobromide; Ipg-galantamine ER; Mar-galantamine ER; Mylan-galantamine ER; PMS-galantamine; PMS-galantamine ER; Pat-galantamine ER; Pendo-galantamine ER; Ratio-galantamine; Razadyne; Reminyl   -(12mg); Reminyl   -(4mg); Reminyl   -(8mg); Reminyl ER; Sandoz Galantamine ER; Teva-galantamine ER

>  <SALTS>  (1) 
Galantamine hydrobromide

>  <SECONDARY_ACCESSION_NUMBERS>  (1) 
APRD00206; EXPT01628

>  <SMILES>  (1) 
[H][C@]12C[C@@H](O)C=C[C@]11CCN(C)CC3=C1C(O2)=C(OC)C=C3

>  <SYNONYMS>  (1) 
(-)-Galanthamine; Galanthamine

$$$$
