343
     RDKit          2D

 55 57  0  0  1  0  0  0  0  0999 V2000
    3.3901   -0.5861    0.0000 S   0  0  0  0  0  0  0  0  0  0  0  0
    5.0875    0.8022    0.0000 O   0  0  0  0  0  0  0  0  0  0  0  0
    6.0483   -0.4025    0.0000 O   0  0  0  0  0  0  0  0  0  0  0  0
    2.4727    3.0321    0.0000 O   0  0  0  0  0  0  0  0  0  0  0  0
    6.3749    0.1822    0.0000 O   0  0  0  0  0  0  0  0  0  0  0  0
    5.0603   -1.3904    0.0000 N   0  0  0  0  0  0  0  0  0  0  0  0
    7.1183   -2.1178    0.0000 N   0  0  0  0  0  0  0  0  0  0  0  0
    3.9045    0.0589    0.0000 C   0  0  0  0  0  0  0  0  0  0  0  0
    4.7295    0.0589    0.0000 C   0  0  0  0  0  0  0  0  0  0  0  0
    5.2439   -0.5861    0.0000 C   0  0  0  0  0  0  0  0  0  0  0  0
    5.7053   -1.9048    0.0000 C   0  0  0  0  0  0  0  0  0  0  0  0
    4.3170   -1.7484    0.0000 C   0  0  0  0  0  0  0  0  0  0  0  0
    3.5466    0.8022    0.0000 C   0  0  0  0  0  0  0  0  0  0  0  0
    3.5738   -1.3904    0.0000 C   0  0  0  0  0  0  0  0  0  0  0  0
    6.4733   -1.6034    0.0000 C   0  0  0  0  0  0  0  0  0  0  0  0
    4.3945   -2.6042    0.0000 C   0  0  0  0  0  0  0  0  0  0  0  0
    2.8563   -1.8635    0.0000 C   0  0  0  0  0  0  0  0  0  0  0  0
    2.7239    0.8639    0.0000 C   0  0  0  0  0  0  0  0  0  0  0  0
    4.0113    1.4839    0.0000 C   0  0  0  0  0  0  0  0  0  0  0  0
    3.6882   -3.0938    0.0000 C   0  0  0  0  0  0  0  0  0  0  0  0
    2.9139   -2.7209    0.0000 C   0  0  0  0  0  0  0  0  0  0  0  0
    2.3659    1.6072    0.0000 C   0  0  0  0  0  0  0  0  0  0  0  0
    3.6534    2.2272    0.0000 C   0  0  0  0  0  0  0  0  0  0  0  0
    7.8863   -1.8163    0.0000 C   0  0  0  0  0  0  0  0  0  0  0  0
    6.9954   -2.9336    0.0000 C   0  0  0  0  0  0  0  0  0  0  0  0
    2.8307    2.2888    0.0000 C   0  0  0  0  0  0  0  0  0  0  0  0
    5.9102    0.8639    0.0000 C   0  0  0  0  0  0  0  0  0  0  0  0
    6.2681    1.6072    0.0000 C   0  0  0  0  0  0  0  0  0  0  0  0
    1.6500    3.0938    0.0000 C   0  0  0  0  0  0  0  0  0  0  0  0
    0.0000    0.0000    0.0000 H   0  0  0  0  0  0  0  0  0  0  0  0
    0.0000    0.0000    0.0000 H   0  0  0  0  0  0  0  0  0  0  0  0
    0.0000    0.0000    0.0000 H   0  0  0  0  0  0  0  0  0  0  0  0
    0.0000    0.0000    0.0000 H   0  0  0  0  0  0  0  0  0  0  0  0
    0.0000    0.0000    0.0000 H   0  0  0  0  0  0  0  0  0  0  0  0
    0.0000    0.0000    0.0000 H   0  0  0  0  0  0  0  0  0  0  0  0
    0.0000    0.0000    0.0000 H   0  0  0  0  0  0  0  0  0  0  0  0
    0.0000    0.0000    0.0000 H   0  0  0  0  0  0  0  0  0  0  0  0
    0.0000    0.0000    0.0000 H   0  0  0  0  0  0  0  0  0  0  0  0
    0.0000    0.0000    0.0000 H   0  0  0  0  0  0  0  0  0  0  0  0
    0.0000    0.0000    0.0000 H   0  0  0  0  0  0  0  0  0  0  0  0
    0.0000    0.0000    0.0000 H   0  0  0  0  0  0  0  0  0  0  0  0
    0.0000    0.0000    0.0000 H   0  0  0  0  0  0  0  0  0  0  0  0
    0.0000    0.0000    0.0000 H   0  0  0  0  0  0  0  0  0  0  0  0
    0.0000    0.0000    0.0000 H   0  0  0  0  0  0  0  0  0  0  0  0
    0.0000    0.0000    0.0000 H   0  0  0  0  0  0  0  0  0  0  0  0
    0.0000    0.0000    0.0000 H   0  0  0  0  0  0  0  0  0  0  0  0
    0.0000    0.0000    0.0000 H   0  0  0  0  0  0  0  0  0  0  0  0
    0.0000    0.0000    0.0000 H   0  0  0  0  0  0  0  0  0  0  0  0
    0.0000    0.0000    0.0000 H   0  0  0  0  0  0  0  0  0  0  0  0
    0.0000    0.0000    0.0000 H   0  0  0  0  0  0  0  0  0  0  0  0
    0.0000    0.0000    0.0000 H   0  0  0  0  0  0  0  0  0  0  0  0
    0.0000    0.0000    0.0000 H   0  0  0  0  0  0  0  0  0  0  0  0
    0.0000    0.0000    0.0000 H   0  0  0  0  0  0  0  0  0  0  0  0
    0.0000    0.0000    0.0000 H   0  0  0  0  0  0  0  0  0  0  0  0
    0.0000    0.0000    0.0000 H   0  0  0  0  0  0  0  0  0  0  0  0
  1  8  1  0
  1 14  1  0
  9  2  1  6
  2 27  1  0
  3 10  2  0
  4 26  1  0
  4 29  1  0
  5 27  2  0
  6 10  1  0
  6 11  1  0
  6 12  1  0
  7 15  1  0
  7 24  1  0
  7 25  1  0
  8  9  1  0
  8 13  1  1
  9 10  1  0
 11 15  1  0
 12 14  2  0
 12 16  1  0
 13 18  2  0
 13 19  1  0
 14 17  1  0
 16 20  2  0
 17 21  2  0
 18 22  1  0
 19 23  2  0
 20 21  1  0
 22 26  2  0
 23 26  1  0
 27 28  1  0
  8 30  1  0
  9 31  1  0
 11 32  1  0
 11 33  1  0
 15 34  1  0
 15 35  1  0
 16 36  1  0
 17 37  1  0
 18 38  1  0
 19 39  1  0
 20 40  1  0
 21 41  1  0
 22 42  1  0
 23 43  1  0
 24 44  1  0
 24 45  1  0
 24 46  1  0
 25 47  1  0
 25 48  1  0
 25 49  1  0
 28 50  1  0
 28 51  1  0
 28 52  1  0
 29 53  1  0
 29 54  1  0
 29 55  1  0
M  END
>  <ALOGPS_LOGP>  (1) 
3.09

>  <ALOGPS_LOGS>  (1) 
-4.39

>  <ALOGPS_SOLUBILITY>  (1) 
1.68e-02 g/l

>  <DATABASE_ID>  (1) 
DB00343

>  <DATABASE_NAME>  (1) 
drugbank

>  <DRUGBANK_ID>  (1) 
DB00343

>  <DRUG_GROUPS>  (1) 
approved

>  <EXACT_MASS>  (1) 
414.16132802

>  <FORMULA>  (1) 
C22H26N2O4S

>  <GENERIC_NAME>  (1) 
Diltiazem

>  <INCHI_IDENTIFIER>  (1) 
InChI=1S/C22H26N2O4S/c1-15(25)28-20-21(16-9-11-17(27-4)12-10-16)29-19-8-6-5-7-18(19)24(22(20)26)14-13-23(2)3/h5-12,20-21H,13-14H2,1-4H3/t20-,21+/m1/s1

>  <INCHI_KEY>  (1) 
HSUGRBWQSSZJOP-RTWAWAEBSA-N

>  <INTERNATIONAL_BRANDS>  (1) 
Acalix; Adizem; Altiazem; Anoheal; Calcicard; Cartia; Dilacor; Dilacor-XR; Dilcontin; Dilrene; Diltia XT; Dilticard; Dilzem; Herbesser; Incoril AP; Masdil; Surazem; TAZTIA; Viazem

>  <JCHEM_ACCEPTOR_COUNT>  (1) 
4

>  <JCHEM_AVERAGE_POLARIZABILITY>  (1) 
43.64570149671696

>  <JCHEM_BIOAVAILABILITY>  (1) 
1

>  <JCHEM_DONOR_COUNT>  (1) 
0

>  <JCHEM_FORMAL_CHARGE>  (1) 
0

>  <JCHEM_GHOSE_FILTER>  (1) 
1

>  <JCHEM_IUPAC>  (1) 
(2S,3S)-5-[2-(dimethylamino)ethyl]-2-(4-methoxyphenyl)-4-oxo-2,3,4,5-tetrahydro-1,5-benzothiazepin-3-yl acetate

>  <JCHEM_LOGP>  (1) 
2.7272518843333335

>  <JCHEM_MDDR_LIKE_RULE>  (1) 
1

>  <JCHEM_NUMBER_OF_RINGS>  (1) 
3

>  <JCHEM_PHYSIOLOGICAL_CHARGE>  (1) 
1

>  <JCHEM_PKA_STRONGEST_ACIDIC>  (1) 
12.860751889993132

>  <JCHEM_PKA_STRONGEST_BASIC>  (1) 
8.175280193715892

>  <JCHEM_POLAR_SURFACE_AREA>  (1) 
59.080000000000005

>  <JCHEM_REFRACTIVITY>  (1) 
114.36630000000002

>  <JCHEM_ROTATABLE_BOND_COUNT>  (1) 
7

>  <JCHEM_RULE_OF_FIVE>  (1) 
1

>  <JCHEM_TRADITIONAL_IUPAC>  (1) 
diltiazem

>  <JCHEM_VEBER_RULE>  (1) 
0

>  <MOLECULAR_WEIGHT>  (1) 
414.518

>  <PRODUCTS>  (1) 
Act Diltiazem CD; Act Diltiazem T; Alti-diltiazem Tab 30mg; Alti-diltiazem Tab 60mg; Apo Diltiaz Tab 30mg; Apo Diltiaz Tab 60mg; Apo-diltiaz CD; Apo-diltiaz CD - Cap 300mg; Apo-diltiaz Injectable; Apo-diltiaz SR - 90mg/src; Apo-diltiaz SR - Src 120mg; Apo-diltiaz SR - Src 60mg; Apo-diltiaz TZ; Ava-diltiazem; Cardizem; Cardizem CD; Cardizem Injectable; Cardizem Injectable Liq 5mg/ml; Cardizem LA; Cardizem SR 120mg; Cardizem SR 60mg; Cardizem SR 90mg; Cartia XT; Dilacor XR; Dilt-CD; Diltiazem - CD; Diltiazem CD; Diltiazem HCl; Diltiazem HCl CD; Diltiazem Hydrochloride; Diltiazem Hydrochloride EXTENDED RELEASE; Diltiazem Hydrochloride Extended Release; Diltiazem Hydrochloride Extended Release Extended Release; Diltiazem Hydrochloride Extended-Release; Diltiazem Hydrochloride Extended-release; Diltiazem Hydrochloride Injection; Diltiazem HydrochlorideExtended Release Extended Release; Diltiazem TZ; Diltiazem Tablets 30mg; Diltiazem Tablets 60mg; Diltiazem hydrochloride; Diltiazem-30 Tab 30mg; Diltiazem-60 Tab 60mg; Diltzac; Gen-diltiazem - Tab 30mg; Gen-diltiazem - Tab 60mg; Gen-diltiazem CD; Gen-diltiazem SR 120mg; Gen-diltiazem SR 60mg; Gen-diltiazem SR 90mg; Mar-diltiazem T; Matzim LA; Med Diltiazem - Tab 30mg; Med Diltiazem - Tab 60mg; Novo-diltazem SR Capsules; Nu-diltiaz Tab 30mg; Nu-diltiaz Tab 60mg; Nu-diltiaz-CD Capsules; Nu-diltiaz-CD Capsules 120mg; Nu-diltiaz-CD Capsules 180mg; Nu-diltiaz-CD Capsules 240mg; PMS-diltiazem CD; Penta-diltiazem - 30mg; Penta-diltiazem - 60mg; Ratio-diltiazem CD; Sandoz Diltiazem CD; Sandoz Diltiazem T; Taro-diltiazem T; Taro-diltiazem Tab 30mg; Taro-diltiazem Tab 60mg; Taztia Xt; Teva-diltiazem; Teva-diltiazem CD; Teva-diltiazem HCl ER Capsules; Tiadylt ER; Tiazac; Tiazac Extended Release; Tiazac Xc; Tria-diltiazem 30mg Tablets; Tria-diltiazem 60 Mg Tablets

>  <SALTS>  (1) 
Diltiazem hydrochloride; Diltiazem malate; Diltiazem maleate

>  <SECONDARY_ACCESSION_NUMBERS>  (1) 
APRD00473

>  <SMILES>  (1) 
COC1=CC=C(C=C1)[C@@H]1SC2=CC=CC=C2N(CCN(C)C)C(=O)[C@@H]1OC(C)=O

$$$$
