601
     RDKit          2D

 44 46  0  0  1  0  0  0  0  0999 V2000
    2.0883   -2.0559    0.0000 F   0  0  0  0  0  0  0  0  0  0  0  0
    3.9298    1.6887    0.0000 O   0  0  0  0  0  0  0  0  0  0  0  0
    3.5173   -4.5309    0.0000 O   0  0  0  0  0  0  0  0  0  0  0  0
    4.9693    0.6491    0.0000 O   0  0  0  0  0  0  0  0  0  0  0  0
    1.6500    3.6910    0.0000 O   0  0  0  0  0  0  0  0  0  0  0  0
    3.5173    0.4191    0.0000 N   0  0  0  0  0  0  0  0  0  0  0  0
    3.5173   -2.8809    0.0000 N   0  0  0  0  0  0  0  0  0  0  0  0
    2.9554    3.1098    0.0000 N   0  0  0  0  0  0  0  0  0  0  0  0
    3.1048    1.6887    0.0000 C   0  0  0  0  0  0  0  0  0  0  0  0
    2.8498    0.9040    0.0000 C   0  0  0  0  0  0  0  0  0  0  0  0
    4.2318   -3.2934    0.0000 C   0  0  0  0  0  0  0  0  0  0  0  0
    2.8028   -3.2934    0.0000 C   0  0  0  0  0  0  0  0  0  0  0  0
    3.5173   -0.4059    0.0000 C   0  0  0  0  0  0  0  0  0  0  0  0
    2.6199    2.3561    0.0000 C   0  0  0  0  0  0  0  0  0  0  0  0
    3.5173   -2.0559    0.0000 C   0  0  0  0  0  0  0  0  0  0  0  0
    4.2318   -4.1184    0.0000 C   0  0  0  0  0  0  0  0  0  0  0  0
    2.8028   -4.1184    0.0000 C   0  0  0  0  0  0  0  0  0  0  0  0
    4.1848    0.9040    0.0000 C   0  0  0  0  0  0  0  0  0  0  0  0
    2.8028   -0.8184    0.0000 C   0  0  0  0  0  0  0  0  0  0  0  0
    4.2318   -0.8184    0.0000 C   0  0  0  0  0  0  0  0  0  0  0  0
    2.8028   -1.6434    0.0000 C   0  0  0  0  0  0  0  0  0  0  0  0
    4.2318   -1.6434    0.0000 C   0  0  0  0  0  0  0  0  0  0  0  0
    2.4705    3.7772    0.0000 C   0  0  0  0  0  0  0  0  0  0  0  0
    2.8061    4.5309    0.0000 C   0  0  0  0  0  0  0  0  0  0  0  0
    0.0000    0.0000    0.0000 H   0  0  0  0  0  0  0  0  0  0  0  0
    0.0000    0.0000    0.0000 H   0  0  0  0  0  0  0  0  0  0  0  0
    0.0000    0.0000    0.0000 H   0  0  0  0  0  0  0  0  0  0  0  0
    0.0000    0.0000    0.0000 H   0  0  0  0  0  0  0  0  0  0  0  0
    0.0000    0.0000    0.0000 H   0  0  0  0  0  0  0  0  0  0  0  0
    0.0000    0.0000    0.0000 H   0  0  0  0  0  0  0  0  0  0  0  0
    0.0000    0.0000    0.0000 H   0  0  0  0  0  0  0  0  0  0  0  0
    0.0000    0.0000    0.0000 H   0  0  0  0  0  0  0  0  0  0  0  0
    0.0000    0.0000    0.0000 H   0  0  0  0  0  0  0  0  0  0  0  0
    0.0000    0.0000    0.0000 H   0  0  0  0  0  0  0  0  0  0  0  0
    0.0000    0.0000    0.0000 H   0  0  0  0  0  0  0  0  0  0  0  0
    0.0000    0.0000    0.0000 H   0  0  0  0  0  0  0  0  0  0  0  0
    0.0000    0.0000    0.0000 H   0  0  0  0  0  0  0  0  0  0  0  0
    0.0000    0.0000    0.0000 H   0  0  0  0  0  0  0  0  0  0  0  0
    0.0000    0.0000    0.0000 H   0  0  0  0  0  0  0  0  0  0  0  0
    0.0000    0.0000    0.0000 H   0  0  0  0  0  0  0  0  0  0  0  0
    0.0000    0.0000    0.0000 H   0  0  0  0  0  0  0  0  0  0  0  0
    0.0000    0.0000    0.0000 H   0  0  0  0  0  0  0  0  0  0  0  0
    0.0000    0.0000    0.0000 H   0  0  0  0  0  0  0  0  0  0  0  0
    0.0000    0.0000    0.0000 H   0  0  0  0  0  0  0  0  0  0  0  0
  1 21  1  0
  2  9  1  0
  2 18  1  0
  3 16  1  0
  3 17  1  0
  4 18  2  0
  5 23  2  0
  6 10  1  0
  6 13  1  0
  6 18  1  0
  7 11  1  0
  7 12  1  0
  7 15  1  0
  8 14  1  0
  8 23  1  0
  9 10  1  0
  9 14  1  6
 11 16  1  0
 12 17  1  0
 13 19  2  0
 13 20  1  0
 15 21  2  0
 15 22  1  0
 19 21  1  0
 20 22  2  0
 23 24  1  0
  8 25  1  0
  9 26  1  0
 10 27  1  0
 10 28  1  0
 11 29  1  0
 11 30  1  0
 12 31  1  0
 12 32  1  0
 14 33  1  0
 14 34  1  0
 16 35  1  0
 16 36  1  0
 17 37  1  0
 17 38  1  0
 19 39  1  0
 20 40  1  0
 22 41  1  0
 24 42  1  0
 24 43  1  0
 24 44  1  0
M  END
>  <ALOGPS_LOGP>  (1) 
0.61

>  <ALOGPS_LOGS>  (1) 
-2.37

>  <ALOGPS_SOLUBILITY>  (1) 
1.44e+00 g/l

>  <DATABASE_ID>  (1) 
DB00601

>  <DATABASE_NAME>  (1) 
drugbank

>  <DRUGBANK_ID>  (1) 
DB00601

>  <DRUG_GROUPS>  (1) 
approved; investigational

>  <EXACT_MASS>  (1) 
337.143784348

>  <FORMULA>  (1) 
C16H20FN3O4

>  <GENERIC_NAME>  (1) 
Linezolid

>  <INCHI_IDENTIFIER>  (1) 
InChI=1S/C16H20FN3O4/c1-11(21)18-9-13-10-20(16(22)24-13)12-2-3-15(14(17)8-12)19-4-6-23-7-5-19/h2-3,8,13H,4-7,9-10H2,1H3,(H,18,21)/t13-/m0/s1

>  <INCHI_KEY>  (1) 
TYZROVQLWOKYKF-ZDUSSCGKSA-N

>  <INTERNATIONAL_BRANDS>  (1) 
Antizolid; Linosept; Linozid; Lizbid; Lizemox; Lizolid; Xolid; Zenix; Zizolid; Zodlin; Zolinid; Zyvoxid

>  <JCHEM_ACCEPTOR_COUNT>  (1) 
5

>  <JCHEM_AVERAGE_POLARIZABILITY>  (1) 
34.056244428194475

>  <JCHEM_BIOAVAILABILITY>  (1) 
1

>  <JCHEM_DONOR_COUNT>  (1) 
1

>  <JCHEM_FORMAL_CHARGE>  (1) 
0

>  <JCHEM_GHOSE_FILTER>  (1) 
1

>  <JCHEM_IUPAC>  (1) 
N-{[(5S)-3-[3-fluoro-4-(morpholin-4-yl)phenyl]-2-oxo-1,3-oxazolidin-5-yl]methyl}acetamide

>  <JCHEM_LOGP>  (1) 
0.6366636523333332

>  <JCHEM_MDDR_LIKE_RULE>  (1) 
0

>  <JCHEM_NUMBER_OF_RINGS>  (1) 
3

>  <JCHEM_PHYSIOLOGICAL_CHARGE>  (1) 
0

>  <JCHEM_PKA_STRONGEST_ACIDIC>  (1) 
14.453722188549907

>  <JCHEM_PKA_STRONGEST_BASIC>  (1) 
-0.6600890673965157

>  <JCHEM_POLAR_SURFACE_AREA>  (1) 
71.11

>  <JCHEM_REFRACTIVITY>  (1) 
84.47480000000002

>  <JCHEM_ROTATABLE_BOND_COUNT>  (1) 
4

>  <JCHEM_RULE_OF_FIVE>  (1) 
1

>  <JCHEM_TRADITIONAL_IUPAC>  (1) 
linezolid

>  <JCHEM_VEBER_RULE>  (1) 
0

>  <MOLECULAR_WEIGHT>  (1) 
337.3461

>  <PRODUCTS>  (1) 
Apo-linezolid; Gpc-linezolid Injection; Linezolid; Linezolid Injection; Novo-linezolid; Sandoz Linezolid; Zyvox; Zyvoxam; Zyvoxam 2 mg/ml; Zyvoxam 600 mg

>  <SECONDARY_ACCESSION_NUMBERS>  (1) 
APRD01073; DB08769

>  <SMILES>  (1) 
CC(=O)NC[C@H]1CN(C(=O)O1)C1=CC(F)=C(C=C1)N1CCOCC1

>  <SYNONYMS>  (1) 
Linezolid; Linezolide; Linezolidum

$$$$
