324
     RDKit          2D

 56 59  0  0  1  0  0  0  0  0999 V2000
    4.1400    0.7077    0.0000 F   0  0  0  0  0  0  0  0  0  0  0  0
    6.6263    1.9371    0.0000 O   0  0  0  0  0  0  0  0  0  0  0  0
    3.9559    1.3132    0.0000 O   0  0  0  0  0  0  0  0  0  0  0  0
    7.4634    2.4564    0.0000 O   0  0  0  0  0  0  0  0  0  0  0  0
    1.6500   -1.6175    0.0000 O   0  0  0  0  0  0  0  0  0  0  0  0
    6.0993    0.9007    0.0000 C   0  0  0  0  0  0  0  0  0  0  0  0
    6.0993    0.0757    0.0000 C   0  0  0  0  0  0  0  0  0  0  0  0
    5.3849   -0.3368    0.0000 C   0  0  0  0  0  0  0  0  0  0  0  0
    4.6703    0.0757    0.0000 C   0  0  0  0  0  0  0  0  0  0  0  0
    6.8799    1.1521    0.0000 C   0  0  0  0  0  0  0  0  0  0  0  0
    5.3849    1.3132    0.0000 C   0  0  0  0  0  0  0  0  0  0  0  0
    4.6703    0.9007    0.0000 C   0  0  0  0  0  0  0  0  0  0  0  0
    6.8799   -0.1757    0.0000 C   0  0  0  0  0  0  0  0  0  0  0  0
    3.9196   -0.3425    0.0000 C   0  0  0  0  0  0  0  0  0  0  0  0
    7.3614    0.4882    0.0000 C   0  0  0  0  0  0  0  0  0  0  0  0
    5.3981   -1.1961    0.0000 C   0  0  0  0  0  0  0  0  0  0  0  0
    4.6572   -1.6314    0.0000 C   0  0  0  0  0  0  0  0  0  0  0  0
    6.0993    1.7257    0.0000 C   0  0  0  0  0  0  0  0  0  0  0  0
    3.9130   -1.2018    0.0000 C   0  0  0  0  0  0  0  0  0  0  0  0
    7.5482    1.6358    0.0000 C   0  0  0  0  0  0  0  0  0  0  0  0
    3.6434    0.4349    0.0000 C   0  0  0  0  0  0  0  0  0  0  0  0
    3.1550    0.1229    0.0000 C   0  0  0  0  0  0  0  0  0  0  0  0
    4.6603   -2.4564    0.0000 C   0  0  0  0  0  0  0  0  0  0  0  0
    3.1413   -1.6554    0.0000 C   0  0  0  0  0  0  0  0  0  0  0  0
    2.3729   -0.3127    0.0000 C   0  0  0  0  0  0  0  0  0  0  0  0
    8.3013    1.2990    0.0000 C   0  0  0  0  0  0  0  0  0  0  0  0
    2.3660   -1.2078    0.0000 C   0  0  0  0  0  0  0  0  0  0  0  0
    0.0000    0.0000    0.0000 H   0  0  0  0  0  0  0  0  0  0  0  0
    0.0000    0.0000    0.0000 H   0  0  0  0  0  0  0  0  0  0  0  0
    0.0000    0.0000    0.0000 H   0  0  0  0  0  0  0  0  0  0  0  0
    0.0000    0.0000    0.0000 H   0  0  0  0  0  0  0  0  0  0  0  0
    0.0000    0.0000    0.0000 H   0  0  0  0  0  0  0  0  0  0  0  0
    0.0000    0.0000    0.0000 H   0  0  0  0  0  0  0  0  0  0  0  0
    0.0000    0.0000    0.0000 H   0  0  0  0  0  0  0  0  0  0  0  0
    0.0000    0.0000    0.0000 H   0  0  0  0  0  0  0  0  0  0  0  0
    0.0000    0.0000    0.0000 H   0  0  0  0  0  0  0  0  0  0  0  0
    0.0000    0.0000    0.0000 H   0  0  0  0  0  0  0  0  0  0  0  0
    0.0000    0.0000    0.0000 H   0  0  0  0  0  0  0  0  0  0  0  0
    0.0000    0.0000    0.0000 H   0  0  0  0  0  0  0  0  0  0  0  0
    0.0000    0.0000    0.0000 H   0  0  0  0  0  0  0  0  0  0  0  0
    0.0000    0.0000    0.0000 H   0  0  0  0  0  0  0  0  0  0  0  0
    0.0000    0.0000    0.0000 H   0  0  0  0  0  0  0  0  0  0  0  0
    0.0000    0.0000    0.0000 H   0  0  0  0  0  0  0  0  0  0  0  0
    0.0000    0.0000    0.0000 H   0  0  0  0  0  0  0  0  0  0  0  0
    0.0000    0.0000    0.0000 H   0  0  0  0  0  0  0  0  0  0  0  0
    0.0000    0.0000    0.0000 H   0  0  0  0  0  0  0  0  0  0  0  0
    0.0000    0.0000    0.0000 H   0  0  0  0  0  0  0  0  0  0  0  0
    0.0000    0.0000    0.0000 H   0  0  0  0  0  0  0  0  0  0  0  0
    0.0000    0.0000    0.0000 H   0  0  0  0  0  0  0  0  0  0  0  0
    0.0000    0.0000    0.0000 H   0  0  0  0  0  0  0  0  0  0  0  0
    0.0000    0.0000    0.0000 H   0  0  0  0  0  0  0  0  0  0  0  0
    0.0000    0.0000    0.0000 H   0  0  0  0  0  0  0  0  0  0  0  0
    0.0000    0.0000    0.0000 H   0  0  0  0  0  0  0  0  0  0  0  0
    0.0000    0.0000    0.0000 H   0  0  0  0  0  0  0  0  0  0  0  0
    0.0000    0.0000    0.0000 H   0  0  0  0  0  0  0  0  0  0  0  0
    0.0000    0.0000    0.0000 H   0  0  0  0  0  0  0  0  0  0  0  0
  9  1  1  6
 10  2  1  6
 12  3  1  1
  4 20  2  0
  5 27  2  0
  6  7  1  0
  6 10  1  0
  6 11  1  0
  6 18  1  1
  7  8  1  0
  7 13  1  0
  8  9  1  0
  8 16  1  0
  9 12  1  0
  9 14  1  0
 10 15  1  0
 10 20  1  0
 11 12  1  0
 13 15  1  0
 14 19  1  0
 14 21  1  1
 14 22  1  0
 16 17  1  0
 17 19  1  0
 17 23  1  6
 19 24  2  0
 20 26  1  0
 22 25  2  0
 24 27  1  0
 25 27  1  0
  2 28  1  0
  3 29  1  0
  7 30  1  6
  8 31  1  1
 11 32  1  0
 11 33  1  0
 12 34  1  0
 13 35  1  0
 13 36  1  0
 15 37  1  0
 15 38  1  0
 16 39  1  0
 16 40  1  0
 17 41  1  0
 18 42  1  0
 18 43  1  0
 18 44  1  0
 21 45  1  0
 21 46  1  0
 21 47  1  0
 22 48  1  0
 23 49  1  0
 23 50  1  0
 23 51  1  0
 24 52  1  0
 25 53  1  0
 26 54  1  0
 26 55  1  0
 26 56  1  0
M  END
>  <ALOGPS_LOGP>  (1) 
2.34

>  <ALOGPS_LOGS>  (1) 
-4.36

>  <ALOGPS_SOLUBILITY>  (1) 
1.66e-02 g/l

>  <DATABASE_ID>  (1) 
DB00324

>  <DATABASE_NAME>  (1) 
drugbank

>  <DRUGBANK_ID>  (1) 
DB00324

>  <DRUG_GROUPS>  (1) 
approved

>  <EXACT_MASS>  (1) 
376.204987621

>  <FORMULA>  (1) 
C22H29FO4

>  <GENERIC_NAME>  (1) 
Fluorometholone

>  <INCHI_IDENTIFIER>  (1) 
InChI=1S/C22H29FO4/c1-12-9-17-15-6-8-21(27,13(2)24)20(15,4)11-18(26)22(17,23)19(3)7-5-14(25)10-16(12)19/h5,7,10,12,15,17-18,26-27H,6,8-9,11H2,1-4H3/t12-,15-,17-,18-,19-,20-,21-,22-/m0/s1

>  <INCHI_KEY>  (1) 
FAOZLTXFLGPHNG-KNAQIMQKSA-N

>  <INTERNATIONAL_BRANDS>  (1) 
Efflumidex; Fluaton; Flumetholon; Fluor-op; Flurolon; FML Liquifilm; Foxone; Fucin; Fuluson; Fumelon; Humetoron

>  <JCHEM_ACCEPTOR_COUNT>  (1) 
4

>  <JCHEM_AVERAGE_POLARIZABILITY>  (1) 
40.05095368504851

>  <JCHEM_BIOAVAILABILITY>  (1) 
1

>  <JCHEM_DONOR_COUNT>  (1) 
2

>  <JCHEM_FORMAL_CHARGE>  (1) 
0

>  <JCHEM_GHOSE_FILTER>  (1) 
1

>  <JCHEM_IUPAC>  (1) 
(1R,2S,8S,10S,11S,14R,15S,17S)-14-acetyl-1-fluoro-14,17-dihydroxy-2,8,15-trimethyltetracyclo[8.7.0.0²,⁷.0¹¹,¹⁵]heptadeca-3,6-dien-5-one

>  <JCHEM_LOGP>  (1) 
2.4208639956666667

>  <JCHEM_MDDR_LIKE_RULE>  (1) 
0

>  <JCHEM_NUMBER_OF_RINGS>  (1) 
4

>  <JCHEM_PHYSIOLOGICAL_CHARGE>  (1) 
0

>  <JCHEM_PKA>  (1) 
13.6935060053532

>  <JCHEM_PKA_STRONGEST_ACIDIC>  (1) 
12.648286467835149

>  <JCHEM_PKA_STRONGEST_BASIC>  (1) 
-3.393381973387413

>  <JCHEM_POLAR_SURFACE_AREA>  (1) 
74.6

>  <JCHEM_REFRACTIVITY>  (1) 
100.86769999999999

>  <JCHEM_ROTATABLE_BOND_COUNT>  (1) 
1

>  <JCHEM_RULE_OF_FIVE>  (1) 
1

>  <JCHEM_TRADITIONAL_IUPAC>  (1) 
fluorometholone

>  <JCHEM_VEBER_RULE>  (1) 
0

>  <MOLECULAR_WEIGHT>  (1) 
376.4617

>  <PRODUCTS>  (1) 
FML; FML 0.1%; FML Forte; FML Forte Sus 0.25%; FML-neo Oph Sus; Flarex; Fluorometholone; PMS-fluorometholone; Sandoz Fluorometholone

>  <SALTS>  (1) 
Fluorometholone Acetate

>  <SECONDARY_ACCESSION_NUMBERS>  (1) 
APRD00980

>  <SMILES>  (1) 
[H][C@@]12CC[C@](O)(C(C)=O)[C@@]1(C)C[C@H](O)[C@@]1(F)[C@@]2([H])C[C@H](C)C2=CC(=O)C=C[C@]12C

>  <SYNONYMS>  (1) 
(1R,2S,8S,10S,11S,14R,15S,17S)-14-acetyl-1-fluoro-14,17-dihydroxy-2,8,15-trimethyltetracyclo[8.7.0.02,7.011,15]heptadeca-3,6-dien-5-one; Fluorometholon; Fluorométholone; Fluorometholone; Fluorometholonum; Fluorometolona

$$$$
