
     RDKit          2D

123127  0  0  0  0  0  0  0  0999 V2000
   -0.1733    0.3672    0.0000 C   0  0  0  0  0  0  0  0  0  0  0  0
    0.2372    1.0790    0.0000 C   0  0  0  0  0  0  0  0  0  0  0  0
   -1.0722    1.3528    0.0000 C   0  0  0  0  0  0  0  0  0  0  0  0
   -0.9764    0.5406    0.0000 O   0  0  0  0  0  0  0  0  0  0  0  0
   -0.3194    1.6903    0.0000 N   0  0  0  0  0  0  0  0  0  0  0  0
    4.0880   -0.4448    0.0000 C   0  0  0  0  0  0  0  0  0  0  0  0
    0.8439    1.2934    0.0000 C   0  0  0  0  0  0  0  0  0  0  0  0
    0.5292   -1.6995    0.0000 C   0  0  0  0  0  0  0  0  0  0  0  0
    1.9528   -1.6904    0.0000 C   0  0  0  0  0  0  0  0  0  0  0  0
    1.2409   -2.1147    0.0000 C   0  0  0  0  0  0  0  0  0  0  0  0
    4.7998   -0.8509    0.0000 C   0  0  0  0  0  0  0  0  0  0  0  0
    2.6645   -0.4540    0.0000 C   0  0  0  0  0  0  0  0  0  0  0  0
    1.9528   -0.8691    0.0000 C   0  0  0  0  0  0  0  0  0  0  0  0
   -3.9877    1.4486    0.0000 N   0  0  0  0  0  0  0  0  0  0  0  0
    1.2638    2.0052    0.0000 C   0  0  0  0  0  0  0  0  0  0  0  0
    0.5292   -0.8691    0.0000 O   0  0  0  0  0  0  0  0  0  0  0  0
   -4.4713    2.1284    0.0000 C   0  0  0  0  0  0  0  0  0  0  0  0
    3.3854   -0.8555    0.0000 O   0  0  0  0  0  0  0  0  0  0  0  0
    5.5115   -0.4312    0.0000 C   0  0  0  0  0  0  0  0  0  0  0  0
    2.6599    0.3763    0.0000 C   0  0  0  0  0  0  0  0  0  0  0  0
   -0.1825   -0.4586    0.0000 C   0  0  0  0  0  0  0  0  0  0  0  0
    4.0743    0.3763    0.0000 O   0  0  0  0  0  0  0  0  0  0  0  0
   -3.9877    2.7900    0.0000 C   0  0  0  0  0  0  0  0  0  0  0  0
   -3.1938    2.5299    0.0000 N   0  0  0  0  0  0  0  0  0  0  0  0
   -3.1938    1.7040    0.0000 C   0  0  0  0  0  0  0  0  0  0  0  0
    1.9390    1.6083    0.0000 C   0  0  0  0  0  0  0  0  0  0  0  0
    1.9390    0.7869    0.0000 C   0  0  0  0  0  0  0  0  0  0  0  0
    5.5069    0.3900    0.0000 C   0  0  0  0  0  0  0  0  0  0  0  0
   -5.3018    2.1284    0.0000 C   0  0  0  0  0  0  0  0  0  0  0  0
   -1.7884    1.7589    0.0000 O   0  0  0  0  0  0  0  0  0  0  0  0
    6.2233   -0.8417    0.0000 N   0  0  0  0  0  0  0  0  0  0  0  0
   -0.1871   -2.1102    0.0000 O   0  0  0  0  0  0  0  0  0  0  0  0
    2.6737   -2.1011    0.0000 O   0  0  0  0  0  0  0  0  0  0  0  0
    4.7860    0.7915    0.0000 C   0  0  0  0  0  0  0  0  0  0  0  0
    1.2683    2.8311    0.0000 O   0  0  0  0  0  0  0  0  0  0  0  0
   -6.5336    1.4166    0.0000 N   0  0  0  0  0  0  0  0  0  0  0  0
    4.8089   -1.6767    0.0000 O   0  0  0  0  0  0  0  0  0  0  0  0
   -0.7618   -0.2122    0.0000 C   0  0  0  0  0  0  0  0  0  0  0  0
    3.0706    1.0880    0.0000 O   0  0  0  0  0  0  0  0  0  0  0  0
   -0.3238    2.5163    0.0000 C   0  0  0  0  0  0  0  0  0  0  0  0
    1.2546    0.5817    0.0000 C   0  0  0  0  0  0  0  0  0  0  0  0
    1.2409   -2.9360    0.0000 C   0  0  0  0  0  0  0  0  0  0  0  0
    1.2364   -0.4586    0.0000 C   0  0  0  0  0  0  0  0  0  0  0  0
   -5.7124    1.4166    0.0000 C   0  0  0  0  0  0  0  0  0  0  0  0
    3.4857    0.3763    0.0000 C   0  0  0  0  0  0  0  0  0  0  0  0
   -2.4729    2.9360    0.0000 C   0  0  0  0  0  0  0  0  0  0  0  0
   -0.8942   -0.8691    0.0000 C   0  0  0  0  0  0  0  0  0  0  0  0
    2.6508    2.0234    0.0000 C   0  0  0  0  0  0  0  0  0  0  0  0
   -5.7032    2.8401    0.0000 C   0  0  0  0  0  0  0  0  0  0  0  0
   -6.9443    2.1330    0.0000 C   0  0  0  0  0  0  0  0  0  0  0  0
    6.2324   -1.6721    0.0000 C   0  0  0  0  0  0  0  0  0  0  0  0
    6.9443   -0.4265    0.0000 C   0  0  0  0  0  0  0  0  0  0  0  0
    4.7860    1.6219    0.0000 C   0  0  0  0  0  0  0  0  0  0  0  0
    3.8964    1.0880    0.0000 C   0  0  0  0  0  0  0  0  0  0  0  0
   -1.0449    2.9269    0.0000 C   0  0  0  0  0  0  0  0  0  0  0  0
   -1.7567    2.5253    0.0000 C   0  0  0  0  0  0  0  0  0  0  0  0
   -6.5245    2.8447    0.0000 C   0  0  0  0  0  0  0  0  0  0  0  0
   -1.6106   -0.4586    0.0000 C   0  0  0  0  0  0  0  0  0  0  0  0
    0.0000    0.0000    0.0000 H   0  0  0  0  0  0  0  0  0  0  0  0
    0.0000    0.0000    0.0000 H   0  0  0  0  0  0  0  0  0  0  0  0
    0.0000    0.0000    0.0000 H   0  0  0  0  0  0  0  0  0  0  0  0
    0.0000    0.0000    0.0000 H   0  0  0  0  0  0  0  0  0  0  0  0
    0.0000    0.0000    0.0000 H   0  0  0  0  0  0  0  0  0  0  0  0
    0.0000    0.0000    0.0000 H   0  0  0  0  0  0  0  0  0  0  0  0
    0.0000    0.0000    0.0000 H   0  0  0  0  0  0  0  0  0  0  0  0
    0.0000    0.0000    0.0000 H   0  0  0  0  0  0  0  0  0  0  0  0
    0.0000    0.0000    0.0000 H   0  0  0  0  0  0  0  0  0  0  0  0
    0.0000    0.0000    0.0000 H   0  0  0  0  0  0  0  0  0  0  0  0
    0.0000    0.0000    0.0000 H   0  0  0  0  0  0  0  0  0  0  0  0
    0.0000    0.0000    0.0000 H   0  0  0  0  0  0  0  0  0  0  0  0
    0.0000    0.0000    0.0000 H   0  0  0  0  0  0  0  0  0  0  0  0
    0.0000    0.0000    0.0000 H   0  0  0  0  0  0  0  0  0  0  0  0
    0.0000    0.0000    0.0000 H   0  0  0  0  0  0  0  0  0  0  0  0
    0.0000    0.0000    0.0000 H   0  0  0  0  0  0  0  0  0  0  0  0
    0.0000    0.0000    0.0000 H   0  0  0  0  0  0  0  0  0  0  0  0
    0.0000    0.0000    0.0000 H   0  0  0  0  0  0  0  0  0  0  0  0
    0.0000    0.0000    0.0000 H   0  0  0  0  0  0  0  0  0  0  0  0
    0.0000    0.0000    0.0000 H   0  0  0  0  0  0  0  0  0  0  0  0
    0.0000    0.0000    0.0000 H   0  0  0  0  0  0  0  0  0  0  0  0
    0.0000    0.0000    0.0000 H   0  0  0  0  0  0  0  0  0  0  0  0
    0.0000    0.0000    0.0000 H   0  0  0  0  0  0  0  0  0  0  0  0
    0.0000    0.0000    0.0000 H   0  0  0  0  0  0  0  0  0  0  0  0
    0.0000    0.0000    0.0000 H   0  0  0  0  0  0  0  0  0  0  0  0
    0.0000    0.0000    0.0000 H   0  0  0  0  0  0  0  0  0  0  0  0
    0.0000    0.0000    0.0000 H   0  0  0  0  0  0  0  0  0  0  0  0
    0.0000    0.0000    0.0000 H   0  0  0  0  0  0  0  0  0  0  0  0
    0.0000    0.0000    0.0000 H   0  0  0  0  0  0  0  0  0  0  0  0
    0.0000    0.0000    0.0000 H   0  0  0  0  0  0  0  0  0  0  0  0
    0.0000    0.0000    0.0000 H   0  0  0  0  0  0  0  0  0  0  0  0
    0.0000    0.0000    0.0000 H   0  0  0  0  0  0  0  0  0  0  0  0
    0.0000    0.0000    0.0000 H   0  0  0  0  0  0  0  0  0  0  0  0
    0.0000    0.0000    0.0000 H   0  0  0  0  0  0  0  0  0  0  0  0
    0.0000    0.0000    0.0000 H   0  0  0  0  0  0  0  0  0  0  0  0
    0.0000    0.0000    0.0000 H   0  0  0  0  0  0  0  0  0  0  0  0
    0.0000    0.0000    0.0000 H   0  0  0  0  0  0  0  0  0  0  0  0
    0.0000    0.0000    0.0000 H   0  0  0  0  0  0  0  0  0  0  0  0
    0.0000    0.0000    0.0000 H   0  0  0  0  0  0  0  0  0  0  0  0
    0.0000    0.0000    0.0000 H   0  0  0  0  0  0  0  0  0  0  0  0
    0.0000    0.0000    0.0000 H   0  0  0  0  0  0  0  0  0  0  0  0
    0.0000    0.0000    0.0000 H   0  0  0  0  0  0  0  0  0  0  0  0
    0.0000    0.0000    0.0000 H   0  0  0  0  0  0  0  0  0  0  0  0
    0.0000    0.0000    0.0000 H   0  0  0  0  0  0  0  0  0  0  0  0
    0.0000    0.0000    0.0000 H   0  0  0  0  0  0  0  0  0  0  0  0
    0.0000    0.0000    0.0000 H   0  0  0  0  0  0  0  0  0  0  0  0
    0.0000    0.0000    0.0000 H   0  0  0  0  0  0  0  0  0  0  0  0
    0.0000    0.0000    0.0000 H   0  0  0  0  0  0  0  0  0  0  0  0
    0.0000    0.0000    0.0000 H   0  0  0  0  0  0  0  0  0  0  0  0
    0.0000    0.0000    0.0000 H   0  0  0  0  0  0  0  0  0  0  0  0
    0.0000    0.0000    0.0000 H   0  0  0  0  0  0  0  0  0  0  0  0
    0.0000    0.0000    0.0000 H   0  0  0  0  0  0  0  0  0  0  0  0
    0.0000    0.0000    0.0000 H   0  0  0  0  0  0  0  0  0  0  0  0
    0.0000    0.0000    0.0000 H   0  0  0  0  0  0  0  0  0  0  0  0
    0.0000    0.0000    0.0000 H   0  0  0  0  0  0  0  0  0  0  0  0
    0.0000    0.0000    0.0000 H   0  0  0  0  0  0  0  0  0  0  0  0
    0.0000    0.0000    0.0000 H   0  0  0  0  0  0  0  0  0  0  0  0
    0.0000    0.0000    0.0000 H   0  0  0  0  0  0  0  0  0  0  0  0
    0.0000    0.0000    0.0000 H   0  0  0  0  0  0  0  0  0  0  0  0
    0.0000    0.0000    0.0000 H   0  0  0  0  0  0  0  0  0  0  0  0
    0.0000    0.0000    0.0000 H   0  0  0  0  0  0  0  0  0  0  0  0
    0.0000    0.0000    0.0000 H   0  0  0  0  0  0  0  0  0  0  0  0
    0.0000    0.0000    0.0000 H   0  0  0  0  0  0  0  0  0  0  0  0
    0.0000    0.0000    0.0000 H   0  0  0  0  0  0  0  0  0  0  0  0
    0.0000    0.0000    0.0000 H   0  0  0  0  0  0  0  0  0  0  0  0
  2  1  1  0
  3  4  1  0
  4  1  1  0
  5  2  1  0
  6 18  1  6
  7  2  1  0
  8 16  1  0
  9 10  1  0
 10  8  1  0
 11  6  1  0
 12 13  1  0
 13  9  1  0
 14 25  2  0
 15  7  1  0
 16 21  1  0
 17 23  2  0
 12 18  1  1
 19 11  1  0
 20 27  1  0
 21  1  1  0
 22  6  1  0
 23 24  1  0
 24 46  1  0
 25 24  1  0
 26 15  1  0
 27 26  1  0
 28 34  1  0
 29 17  1  0
 30  3  2  0
 19 31  1  1
 32  8  2  0
 33  9  2  0
 34 22  1  0
 35 15  2  0
 36 44  2  0
 11 37  1  1
  1 38  1  6
 20 39  1  1
 40  5  1  0
  7 41  1  6
 10 42  1  6
 13 43  1  6
 44 29  1  0
 45 20  1  0
 46 56  1  0
 21 47  1  1
 26 48  1  1
 49 29  2  0
 50 57  2  0
 51 31  1  0
 52 31  1  0
 34 53  1  6
 54 39  1  0
 55 40  1  0
 56 55  1  0
 57 49  1  0
 58 47  1  0
  5  3  1  0
 12 20  1  0
 17 14  1  0
 19 28  1  0
 36 50  1  0
  2 59  1  1
  6 60  1  0
  7 61  1  0
 10 62  1  0
 11 63  1  0
 12 64  1  0
 13 65  1  0
 19 66  1  0
 21 67  1  0
 23 68  1  0
 25 69  1  0
 26 70  1  0
 27 71  1  0
 27 72  1  0
 28 73  1  0
 28 74  1  0
 34 75  1  0
 37 76  1  0
 38 77  1  0
 38 78  1  0
 38 79  1  0
 40 80  1  0
 40 81  1  0
 41 82  1  0
 41 83  1  0
 41 84  1  0
 42 85  1  0
 42 86  1  0
 42 87  1  0
 43 88  1  0
 43 89  1  0
 43 90  1  0
 44 91  1  0
 45 92  1  0
 45 93  1  0
 45 94  1  0
 46 95  1  0
 46 96  1  0
 47 97  1  0
 47 98  1  0
 48 99  1  0
 48100  1  0
 48101  1  0
 49102  1  0
 50103  1  0
 51104  1  0
 51105  1  0
 51106  1  0
 52107  1  0
 52108  1  0
 52109  1  0
 53110  1  0
 53111  1  0
 53112  1  0
 54113  1  0
 54114  1  0
 54115  1  0
 55116  1  0
 55117  1  0
 56118  1  0
 56119  1  0
 57120  1  0
 58121  1  0
 58122  1  0
 58123  1  0
M  END
>  <ALOGPS_LOGP>  (1) 
4.21

>  <ALOGPS_LOGS>  (1) 
-4.46

>  <ALOGPS_SOLUBILITY>  (1) 
2.83e-02 g/l

>  <DATABASE_ID>  (1) 
DB00976

>  <DATABASE_NAME>  (1) 
drugbank

>  <DRUGBANK_ID>  (1) 
DB00976

>  <DRUG_GROUPS>  (1) 
approved

>  <EXACT_MASS>  (1) 
811.473143313

>  <FORMULA>  (1) 
C43H65N5O10

>  <GENERIC_NAME>  (1) 
Telithromycin

>  <INCHI_IDENTIFIER>  (1) 
InChI=1S/C43H65N5O10/c1-12-33-43(8)37(48(41(53)58-43)19-14-13-18-47-23-31(45-24-47)30-16-15-17-44-22-30)27(4)34(49)25(2)21-42(7,54-11)38(28(5)35(50)29(6)39(52)56-33)57-40-36(51)32(46(9)10)20-26(3)55-40/h15-17,22-29,32-33,36-38,40,51H,12-14,18-21H2,1-11H3/t25-,26-,27+,28+,29-,32+,33-,36-,37-,38-,40+,42-,43-/m1/s1

>  <INCHI_KEY>  (1) 
LJVAJPDWBABPEJ-PNUFFHFMSA-N

>  <JCHEM_ACCEPTOR_COUNT>  (1) 
11

>  <JCHEM_ATOM_COUNT>  (1) 
123

>  <JCHEM_AVERAGE_POLARIZABILITY>  (1) 
90.4384966301889

>  <JCHEM_BIOAVAILABILITY>  (1) 
0

>  <JCHEM_DONOR_COUNT>  (1) 
1

>  <JCHEM_FORMAL_CHARGE>  (1) 
0

>  <JCHEM_GHOSE_FILTER>  (1) 
0

>  <JCHEM_IUPAC>  (1) 
(3aS,4R,7R,9R,10R,11R,13R,15R,15aR)-10-{[(2S,3R,4S,6R)-4-(dimethylamino)-3-hydroxy-6-methyloxan-2-yl]oxy}-4-ethyl-11-methoxy-3a,7,9,11,13,15-hexamethyl-1-{4-[4-(pyridin-3-yl)-1H-imidazol-1-yl]butyl}-tetradecahydro-1H-oxacyclotetradeca[4,3-d][1,3]oxazole-2,6,8,14-tetrone

>  <JCHEM_LOGP>  (1) 
5.134463869317644

>  <JCHEM_MDDR_LIKE_RULE>  (1) 
1

>  <JCHEM_NUMBER_OF_RINGS>  (1) 
5

>  <JCHEM_PHYSIOLOGICAL_CHARGE>  (1) 
1

>  <JCHEM_PKA>  (1) 
12.8316960906138

>  <JCHEM_PKA_STRONGEST_ACIDIC>  (1) 
8.838963958185415

>  <JCHEM_PKA_STRONGEST_BASIC>  (1) 
7.654524260411075

>  <JCHEM_POLAR_SURFACE_AREA>  (1) 
171.84999999999997

>  <JCHEM_REFRACTIVITY>  (1) 
214.68349999999995

>  <JCHEM_ROTATABLE_BOND_COUNT>  (1) 
11

>  <JCHEM_RULE_OF_FIVE>  (1) 
0

>  <JCHEM_TRADITIONAL_IUPAC>  (1) 
telithromycin

>  <JCHEM_VEBER_RULE>  (1) 
0

>  <MOLECULAR_WEIGHT>  (1) 
812.018

>  <PRODUCTS>  (1) 
Ketek

>  <SECONDARY_ACCESSION_NUMBERS>  (1) 
APRD00483

>  <SMILES>  (1) 
[H][C@@]12[C@@H](C)C(=O)[C@H](C)C[C@@](C)(OC)[C@H](O[C@@H]3O[C@H](C)C[C@@H]([C@H]3O)N(C)C)[C@@H](C)C(=O)[C@@H](C)C(=O)O[C@H](CC)[C@@]1(C)OC(=O)N2CCCCN1C=NC(=C1)C1=CC=CN=C1

$$$$
