442
     RDKit          2D

 35 37  0  0  1  0  0  0  0  0999 V2000
    5.0221    2.3275    0.0000 O   0  0  0  0  0  0  0  0  0  0  0  0
    6.6433    2.5906    0.0000 O   0  0  0  0  0  0  0  0  0  0  0  0
    3.5220   -2.8905    0.0000 O   0  0  0  0  0  0  0  0  0  0  0  0
    5.0170   -0.5766    0.0000 N   0  0  0  0  0  0  0  0  0  0  0  0
    3.5220   -0.4155    0.0000 N   0  0  0  0  0  0  0  0  0  0  0  0
    5.0170   -1.9044    0.0000 N   0  0  0  0  0  0  0  0  0  0  0  0
    2.8075   -1.6530    0.0000 N   0  0  0  0  0  0  0  0  0  0  0  0
    2.0930   -0.4155    0.0000 N   0  0  0  0  0  0  0  0  0  0  0  0
    5.2734    0.2076    0.0000 C   0  0  0  0  0  0  0  0  0  0  0  0
    6.0598    1.2862    0.0000 C   0  0  0  0  0  0  0  0  0  0  0  0
    5.2757    1.5425    0.0000 C   0  0  0  0  0  0  0  0  0  0  0  0
    4.7896    0.8759    0.0000 C   0  0  0  0  0  0  0  0  0  0  0  0
    6.0584    0.4612    0.0000 C   0  0  0  0  0  0  0  0  0  0  0  0
    6.7281    1.7700    0.0000 C   0  0  0  0  0  0  0  0  0  0  0  0
    4.2364   -0.8280    0.0000 C   0  0  0  0  0  0  0  0  0  0  0  0
    6.7250   -0.0249    0.0000 C   0  0  0  0  0  0  0  0  0  0  0  0
    5.4985   -1.2405    0.0000 C   0  0  0  0  0  0  0  0  0  0  0  0
    4.2364   -1.6530    0.0000 C   0  0  0  0  0  0  0  0  0  0  0  0
    3.5220   -2.0655    0.0000 C   0  0  0  0  0  0  0  0  0  0  0  0
    2.8075   -0.8280    0.0000 C   0  0  0  0  0  0  0  0  0  0  0  0
    0.0000    0.0000    0.0000 H   0  0  0  0  0  0  0  0  0  0  0  0
    0.0000    0.0000    0.0000 H   0  0  0  0  0  0  0  0  0  0  0  0
    0.0000    0.0000    0.0000 H   0  0  0  0  0  0  0  0  0  0  0  0
    0.0000    0.0000    0.0000 H   0  0  0  0  0  0  0  0  0  0  0  0
    0.0000    0.0000    0.0000 H   0  0  0  0  0  0  0  0  0  0  0  0
    0.0000    0.0000    0.0000 H   0  0  0  0  0  0  0  0  0  0  0  0
    0.0000    0.0000    0.0000 H   0  0  0  0  0  0  0  0  0  0  0  0
    0.0000    0.0000    0.0000 H   0  0  0  0  0  0  0  0  0  0  0  0
    0.0000    0.0000    0.0000 H   0  0  0  0  0  0  0  0  0  0  0  0
    0.0000    0.0000    0.0000 H   0  0  0  0  0  0  0  0  0  0  0  0
    0.0000    0.0000    0.0000 H   0  0  0  0  0  0  0  0  0  0  0  0
    0.0000    0.0000    0.0000 H   0  0  0  0  0  0  0  0  0  0  0  0
    0.0000    0.0000    0.0000 H   0  0  0  0  0  0  0  0  0  0  0  0
    0.0000    0.0000    0.0000 H   0  0  0  0  0  0  0  0  0  0  0  0
    0.0000    0.0000    0.0000 H   0  0  0  0  0  0  0  0  0  0  0  0
 11  1  1  6
  2 14  1  0
  3 19  2  0
  9  4  1  1
  4 15  1  0
  4 17  1  0
  5 15  1  0
  5 20  1  0
  6 17  2  0
  6 18  1  0
  7 19  1  0
  7 20  2  0
  8 20  1  0
  9 12  1  0
  9 13  1  0
 10 11  1  0
 10 13  1  0
 10 14  1  6
 11 12  1  0
 13 16  2  3
 15 18  2  0
 18 19  1  0
  1 21  1  0
  2 22  1  0
  5 23  1  0
  8 24  1  0
  8 25  1  0
  9 26  1  0
 10 27  1  0
 11 28  1  0
 12 29  1  0
 12 30  1  0
 14 31  1  0
 14 32  1  0
 16 33  1  0
 16 34  1  0
 17 35  1  0
M  END
>  <ALOGPS_LOGP>  (1) 
-0.81

>  <ALOGPS_LOGS>  (1) 
-1.62

>  <ALOGPS_SOLUBILITY>  (1) 
6.59e+00 g/l

>  <DATABASE_ID>  (1) 
DB00442

>  <DATABASE_NAME>  (1) 
drugbank

>  <DRUGBANK_ID>  (1) 
DB00442

>  <DRUG_GROUPS>  (1) 
approved; investigational

>  <EXACT_MASS>  (1) 
277.117489371

>  <FORMULA>  (1) 
C12H15N5O3

>  <GENERIC_NAME>  (1) 
Entecavir

>  <INCHI_IDENTIFIER>  (1) 
InChI=1S/C12H15N5O3/c1-5-6(3-18)8(19)2-7(5)17-4-14-9-10(17)15-12(13)16-11(9)20/h4,6-8,18-19H,1-3H2,(H3,13,15,16,20)/t6-,7-,8-/m0/s1

>  <INCHI_KEY>  (1) 
QDGZDCVAUDNJFG-FXQIFTODSA-N

>  <INTERNATIONAL_BRANDS>  (1) 
Barcavir; Caavirel; Entaliv; Teviral

>  <JCHEM_ACCEPTOR_COUNT>  (1) 
7

>  <JCHEM_AVERAGE_POLARIZABILITY>  (1) 
27.308722207267255

>  <JCHEM_BIOAVAILABILITY>  (1) 
1

>  <JCHEM_DONOR_COUNT>  (1) 
4

>  <JCHEM_FORMAL_CHARGE>  (1) 
0

>  <JCHEM_GHOSE_FILTER>  (1) 
0

>  <JCHEM_IUPAC>  (1) 
2-amino-9-[(1S,3R,4S)-4-hydroxy-3-(hydroxymethyl)-2-methylidenecyclopentyl]-6,9-dihydro-3H-purin-6-one

>  <JCHEM_LOGP>  (1) 
-1.4446591723333337

>  <JCHEM_MDDR_LIKE_RULE>  (1) 
0

>  <JCHEM_NUMBER_OF_RINGS>  (1) 
3

>  <JCHEM_PHYSIOLOGICAL_CHARGE>  (1) 
0

>  <JCHEM_PKA>  (1) 
14.64255089215305

>  <JCHEM_PKA_STRONGEST_ACIDIC>  (1) 
8.003302101181076

>  <JCHEM_PKA_STRONGEST_BASIC>  (1) 
2.7731139288504045

>  <JCHEM_POLAR_SURFACE_AREA>  (1) 
125.75999999999999

>  <JCHEM_REFRACTIVITY>  (1) 
71.0008

>  <JCHEM_ROTATABLE_BOND_COUNT>  (1) 
2

>  <JCHEM_RULE_OF_FIVE>  (1) 
1

>  <JCHEM_TRADITIONAL_IUPAC>  (1) 
entecavir

>  <JCHEM_VEBER_RULE>  (1) 
0

>  <MOLECULAR_WEIGHT>  (1) 
277.2792

>  <PRODUCTS>  (1) 
Apo-entecavir; Auro-entecavir; Baraclude; Entecavir; Gpc-entecavir; Jamp-entecavir; PMS-entecavir; Sandoz Entecavir

>  <SALTS>  (1) 
Entecavir monohydrate; Entecavir triphosphate

>  <SECONDARY_ACCESSION_NUMBERS>  (1) 
APRD00948

>  <SMILES>  (1) 
NC1=NC(=O)C2=C(N1)N(C=N2)[C@H]1C[C@H](O)[C@@H](CO)C1=C

>  <SYNONYMS>  (1) 
Anhydrous entecavir; Entecavir; Entecavir (anhydrous); Entecavir anhydrous; Entecavirum

$$$$
