132
     RDKit          2D

 50 49  0  0  0  0  0  0  0  0999 V2000
    2.3645    3.2217    0.0000 O   0  0  0  0  0  0  0  0  0  0  0  0
    1.6500    1.9842    0.0000 O   0  0  0  0  0  0  0  0  0  0  0  0
    3.7935   -0.0784    0.0000 C   0  0  0  0  0  0  0  0  0  0  0  0
    4.5080   -0.4909    0.0000 C   0  0  0  0  0  0  0  0  0  0  0  0
    3.7935    0.7466    0.0000 C   0  0  0  0  0  0  0  0  0  0  0  0
    4.5080   -1.3159    0.0000 C   0  0  0  0  0  0  0  0  0  0  0  0
    3.0791    1.1592    0.0000 C   0  0  0  0  0  0  0  0  0  0  0  0
    5.2224   -1.7284    0.0000 C   0  0  0  0  0  0  0  0  0  0  0  0
    3.0791    1.9842    0.0000 C   0  0  0  0  0  0  0  0  0  0  0  0
    5.2224   -2.5534    0.0000 C   0  0  0  0  0  0  0  0  0  0  0  0
    2.3645    2.3967    0.0000 C   0  0  0  0  0  0  0  0  0  0  0  0
    5.9370   -2.9659    0.0000 C   0  0  0  0  0  0  0  0  0  0  0  0
    6.6515   -2.5534    0.0000 C   0  0  0  0  0  0  0  0  0  0  0  0
    7.3659   -2.9659    0.0000 C   0  0  0  0  0  0  0  0  0  0  0  0
    8.0804   -2.5534    0.0000 C   0  0  0  0  0  0  0  0  0  0  0  0
    8.0804   -1.7284    0.0000 C   0  0  0  0  0  0  0  0  0  0  0  0
    8.7949   -1.3159    0.0000 C   0  0  0  0  0  0  0  0  0  0  0  0
    8.7949   -0.4909    0.0000 C   0  0  0  0  0  0  0  0  0  0  0  0
    8.0804   -0.0784    0.0000 C   0  0  0  0  0  0  0  0  0  0  0  0
    8.0804    0.7466    0.0000 C   0  0  0  0  0  0  0  0  0  0  0  0
    0.0000    0.0000    0.0000 H   0  0  0  0  0  0  0  0  0  0  0  0
    0.0000    0.0000    0.0000 H   0  0  0  0  0  0  0  0  0  0  0  0
    0.0000    0.0000    0.0000 H   0  0  0  0  0  0  0  0  0  0  0  0
    0.0000    0.0000    0.0000 H   0  0  0  0  0  0  0  0  0  0  0  0
    0.0000    0.0000    0.0000 H   0  0  0  0  0  0  0  0  0  0  0  0
    0.0000    0.0000    0.0000 H   0  0  0  0  0  0  0  0  0  0  0  0
    0.0000    0.0000    0.0000 H   0  0  0  0  0  0  0  0  0  0  0  0
    0.0000    0.0000    0.0000 H   0  0  0  0  0  0  0  0  0  0  0  0
    0.0000    0.0000    0.0000 H   0  0  0  0  0  0  0  0  0  0  0  0
    0.0000    0.0000    0.0000 H   0  0  0  0  0  0  0  0  0  0  0  0
    0.0000    0.0000    0.0000 H   0  0  0  0  0  0  0  0  0  0  0  0
    0.0000    0.0000    0.0000 H   0  0  0  0  0  0  0  0  0  0  0  0
    0.0000    0.0000    0.0000 H   0  0  0  0  0  0  0  0  0  0  0  0
    0.0000    0.0000    0.0000 H   0  0  0  0  0  0  0  0  0  0  0  0
    0.0000    0.0000    0.0000 H   0  0  0  0  0  0  0  0  0  0  0  0
    0.0000    0.0000    0.0000 H   0  0  0  0  0  0  0  0  0  0  0  0
    0.0000    0.0000    0.0000 H   0  0  0  0  0  0  0  0  0  0  0  0
    0.0000    0.0000    0.0000 H   0  0  0  0  0  0  0  0  0  0  0  0
    0.0000    0.0000    0.0000 H   0  0  0  0  0  0  0  0  0  0  0  0
    0.0000    0.0000    0.0000 H   0  0  0  0  0  0  0  0  0  0  0  0
    0.0000    0.0000    0.0000 H   0  0  0  0  0  0  0  0  0  0  0  0
    0.0000    0.0000    0.0000 H   0  0  0  0  0  0  0  0  0  0  0  0
    0.0000    0.0000    0.0000 H   0  0  0  0  0  0  0  0  0  0  0  0
    0.0000    0.0000    0.0000 H   0  0  0  0  0  0  0  0  0  0  0  0
    0.0000    0.0000    0.0000 H   0  0  0  0  0  0  0  0  0  0  0  0
    0.0000    0.0000    0.0000 H   0  0  0  0  0  0  0  0  0  0  0  0
    0.0000    0.0000    0.0000 H   0  0  0  0  0  0  0  0  0  0  0  0
    0.0000    0.0000    0.0000 H   0  0  0  0  0  0  0  0  0  0  0  0
    0.0000    0.0000    0.0000 H   0  0  0  0  0  0  0  0  0  0  0  0
    0.0000    0.0000    0.0000 H   0  0  0  0  0  0  0  0  0  0  0  0
  1 11  1  0
  2 11  2  0
  3  4  1  0
  3  5  1  0
  4  6  1  0
  5  7  1  0
  6  8  1  0
  7  9  1  0
  8 10  1  0
  9 11  1  0
 10 12  2  0
 12 13  1  0
 13 14  1  0
 14 15  2  0
 15 16  1  0
 16 17  1  0
 17 18  2  0
 18 19  1  0
 19 20  1  0
  1 21  1  0
  3 22  1  0
  3 23  1  0
  4 24  1  0
  4 25  1  0
  5 26  1  0
  5 27  1  0
  6 28  1  0
  6 29  1  0
  7 30  1  0
  7 31  1  0
  8 32  1  0
  8 33  1  0
  9 34  1  0
  9 35  1  0
 10 36  1  0
 12 37  1  0
 13 38  1  0
 13 39  1  0
 14 40  1  0
 15 41  1  0
 16 42  1  0
 16 43  1  0
 17 44  1  0
 18 45  1  0
 19 46  1  0
 19 47  1  0
 20 48  1  0
 20 49  1  0
 20 50  1  0
M  END
>  <ALOGPS_LOGP>  (1) 
6.62

>  <ALOGPS_LOGS>  (1) 
-6.02

>  <ALOGPS_SOLUBILITY>  (1) 
2.66e-04 g/l

>  <DATABASE_ID>  (1) 
DB00132

>  <DATABASE_NAME>  (1) 
drugbank

>  <DRUGBANK_ID>  (1) 
DB00132

>  <DRUG_GROUPS>  (1) 
approved; nutraceutical

>  <EXACT_MASS>  (1) 
278.224580204

>  <FORMULA>  (1) 
C18H30O2

>  <GENERIC_NAME>  (1) 
Alpha-Linolenic Acid

>  <INCHI_IDENTIFIER>  (1) 
InChI=1S/C18H30O2/c1-2-3-4-5-6-7-8-9-10-11-12-13-14-15-16-17-18(19)20/h3-4,6-7,9-10H,2,5,8,11-17H2,1H3,(H,19,20)/b4-3-,7-6-,10-9-

>  <INCHI_KEY>  (1) 
DTOSIQBPPRVQHS-PDBXOOCHSA-N

>  <JCHEM_ACCEPTOR_COUNT>  (1) 
2

>  <JCHEM_AVERAGE_POLARIZABILITY>  (1) 
34.980361006818654

>  <JCHEM_BIOAVAILABILITY>  (1) 
0

>  <JCHEM_DONOR_COUNT>  (1) 
1

>  <JCHEM_FORMAL_CHARGE>  (1) 
0

>  <JCHEM_GHOSE_FILTER>  (1) 
0

>  <JCHEM_IUPAC>  (1) 
(9Z,12Z,15Z)-octadeca-9,12,15-trienoic acid

>  <JCHEM_LOGP>  (1) 
6.059955137666666

>  <JCHEM_MDDR_LIKE_RULE>  (1) 
0

>  <JCHEM_NUMBER_OF_RINGS>  (1) 
0

>  <JCHEM_PHYSIOLOGICAL_CHARGE>  (1) 
-1

>  <JCHEM_PKA_STRONGEST_ACIDIC>  (1) 
4.988167283903808

>  <JCHEM_POLAR_SURFACE_AREA>  (1) 
37.3

>  <JCHEM_REFRACTIVITY>  (1) 
89.6354

>  <JCHEM_ROTATABLE_BOND_COUNT>  (1) 
13

>  <JCHEM_RULE_OF_FIVE>  (1) 
0

>  <JCHEM_TRADITIONAL_IUPAC>  (1) 
α linolenic acid

>  <JCHEM_VEBER_RULE>  (1) 
0

>  <MOLECULAR_WEIGHT>  (1) 
278.4296

>  <PRODUCTS>  (1) 
Folcaps Care One; Folcaps Omega-3; UltimateCare ONE NF

>  <SECONDARY_ACCESSION_NUMBERS>  (1) 
NUTR00034

>  <SMILES>  (1) 
CC\C=C/C\C=C/C\C=C/CCCCCCCC(O)=O

>  <SYNONYMS>  (1) 
(9,12,15)-linolenic acid; (9Z,12Z,15Z)-Octadecatrienoic acid; (Z,Z,Z)-9,12,15-octadecatrienoic acid; 9-cis,12-cis,15-cis-octadecatrienoic acid; 9,12,15-Octadecatrienoic acid; ALA; all-cis-9,12,15-Octadecatrienoic acid; alpha-Linolenic acid; cis-delta(9,12,15)-Octadecatrienoic acid; cis,cis,cis-9,12,15-Octadecatrienoic acid; Linolenic acid; α-linolenic acid

$$$$
