881
     RDKit          2D

 62 64  0  0  1  0  0  0  0  0999 V2000
    3.0790    1.5221    0.0000 O   0  0  0  0  0  0  0  0  0  0  0  0
    3.7934    3.5846    0.0000 O   0  0  0  0  0  0  0  0  0  0  0  0
    3.0790    2.3471    0.0000 O   0  0  0  0  0  0  0  0  0  0  0  0
    2.3645   -2.1904    0.0000 O   0  0  0  0  0  0  0  0  0  0  0  0
    1.6500   -0.9529    0.0000 O   0  0  0  0  0  0  0  0  0  0  0  0
    4.5079    1.5221    0.0000 N   0  0  0  0  0  0  0  0  0  0  0  0
    3.0790   -0.1279    0.0000 N   0  0  0  0  0  0  0  0  0  0  0  0
    4.5079    2.3471    0.0000 C   0  0  0  0  0  0  0  0  0  0  0  0
    5.2223    2.7596    0.0000 C   0  0  0  0  0  0  0  0  0  0  0  0
    5.2223    1.1096    0.0000 C   0  0  0  0  0  0  0  0  0  0  0  0
    5.9369    2.3471    0.0000 C   0  0  0  0  0  0  0  0  0  0  0  0
    5.9369    1.5221    0.0000 C   0  0  0  0  0  0  0  0  0  0  0  0
    3.7934    0.2846    0.0000 C   0  0  0  0  0  0  0  0  0  0  0  0
    3.7934    1.1096    0.0000 C   0  0  0  0  0  0  0  0  0  0  0  0
    3.0790   -0.9529    0.0000 C   0  0  0  0  0  0  0  0  0  0  0  0
    3.7934    2.7596    0.0000 C   0  0  0  0  0  0  0  0  0  0  0  0
    3.7934   -1.3654    0.0000 C   0  0  0  0  0  0  0  0  0  0  0  0
    6.6743    2.7883    0.0000 C   0  0  0  0  0  0  0  0  0  0  0  0
    6.6743    1.0810    0.0000 C   0  0  0  0  0  0  0  0  0  0  0  0
    4.5079   -0.1279    0.0000 C   0  0  0  0  0  0  0  0  0  0  0  0
    3.7934   -2.1904    0.0000 C   0  0  0  0  0  0  0  0  0  0  0  0
    7.4219    2.3643    0.0000 C   0  0  0  0  0  0  0  0  0  0  0  0
    7.4219    1.5050    0.0000 C   0  0  0  0  0  0  0  0  0  0  0  0
    2.3645   -1.3654    0.0000 C   0  0  0  0  0  0  0  0  0  0  0  0
    4.5079   -2.6029    0.0000 C   0  0  0  0  0  0  0  0  0  0  0  0
    5.2223   -2.1904    0.0000 C   0  0  0  0  0  0  0  0  0  0  0  0
    4.5079   -3.4279    0.0000 C   0  0  0  0  0  0  0  0  0  0  0  0
    1.6500   -2.6029    0.0000 C   0  0  0  0  0  0  0  0  0  0  0  0
    5.9369   -2.6029    0.0000 C   0  0  0  0  0  0  0  0  0  0  0  0
    5.2223   -3.8404    0.0000 C   0  0  0  0  0  0  0  0  0  0  0  0
    5.9369   -3.4279    0.0000 C   0  0  0  0  0  0  0  0  0  0  0  0
    1.6500   -3.4279    0.0000 C   0  0  0  0  0  0  0  0  0  0  0  0
    0.0000    0.0000    0.0000 H   0  0  0  0  0  0  0  0  0  0  0  0
    0.0000    0.0000    0.0000 H   0  0  0  0  0  0  0  0  0  0  0  0
    0.0000    0.0000    0.0000 H   0  0  0  0  0  0  0  0  0  0  0  0
    0.0000    0.0000    0.0000 H   0  0  0  0  0  0  0  0  0  0  0  0
    0.0000    0.0000    0.0000 H   0  0  0  0  0  0  0  0  0  0  0  0
    0.0000    0.0000    0.0000 H   0  0  0  0  0  0  0  0  0  0  0  0
    0.0000    0.0000    0.0000 H   0  0  0  0  0  0  0  0  0  0  0  0
    0.0000    0.0000    0.0000 H   0  0  0  0  0  0  0  0  0  0  0  0
    0.0000    0.0000    0.0000 H   0  0  0  0  0  0  0  0  0  0  0  0
    0.0000    0.0000    0.0000 H   0  0  0  0  0  0  0  0  0  0  0  0
    0.0000    0.0000    0.0000 H   0  0  0  0  0  0  0  0  0  0  0  0
    0.0000    0.0000    0.0000 H   0  0  0  0  0  0  0  0  0  0  0  0
    0.0000    0.0000    0.0000 H   0  0  0  0  0  0  0  0  0  0  0  0
    0.0000    0.0000    0.0000 H   0  0  0  0  0  0  0  0  0  0  0  0
    0.0000    0.0000    0.0000 H   0  0  0  0  0  0  0  0  0  0  0  0
    0.0000    0.0000    0.0000 H   0  0  0  0  0  0  0  0  0  0  0  0
    0.0000    0.0000    0.0000 H   0  0  0  0  0  0  0  0  0  0  0  0
    0.0000    0.0000    0.0000 H   0  0  0  0  0  0  0  0  0  0  0  0
    0.0000    0.0000    0.0000 H   0  0  0  0  0  0  0  0  0  0  0  0
    0.0000    0.0000    0.0000 H   0  0  0  0  0  0  0  0  0  0  0  0
    0.0000    0.0000    0.0000 H   0  0  0  0  0  0  0  0  0  0  0  0
    0.0000    0.0000    0.0000 H   0  0  0  0  0  0  0  0  0  0  0  0
    0.0000    0.0000    0.0000 H   0  0  0  0  0  0  0  0  0  0  0  0
    0.0000    0.0000    0.0000 H   0  0  0  0  0  0  0  0  0  0  0  0
    0.0000    0.0000    0.0000 H   0  0  0  0  0  0  0  0  0  0  0  0
    0.0000    0.0000    0.0000 H   0  0  0  0  0  0  0  0  0  0  0  0
    0.0000    0.0000    0.0000 H   0  0  0  0  0  0  0  0  0  0  0  0
    0.0000    0.0000    0.0000 H   0  0  0  0  0  0  0  0  0  0  0  0
    0.0000    0.0000    0.0000 H   0  0  0  0  0  0  0  0  0  0  0  0
    0.0000    0.0000    0.0000 H   0  0  0  0  0  0  0  0  0  0  0  0
  1 14  2  0
  2 16  1  0
  3 16  2  0
  4 24  1  0
  4 28  1  0
  5 24  2  0
  6  8  1  0
  6 10  1  0
  6 14  1  0
 13  7  1  6
 15  7  1  1
  8  9  1  0
  8 16  1  6
  9 11  1  0
 10 12  1  0
 11 12  2  0
 11 18  1  0
 12 19  1  0
 13 14  1  0
 13 20  1  0
 15 17  1  0
 15 24  1  0
 17 21  1  0
 18 22  2  0
 19 23  2  0
 21 25  1  0
 22 23  1  0
 25 26  2  0
 25 27  1  0
 26 29  1  0
 27 30  2  0
 28 32  1  0
 29 31  2  0
 30 31  1  0
  2 33  1  0
  7 34  1  0
  8 35  1  0
  9 36  1  0
  9 37  1  0
 10 38  1  0
 10 39  1  0
 13 40  1  0
 15 41  1  0
 17 42  1  0
 17 43  1  0
 18 44  1  0
 19 45  1  0
 20 46  1  0
 20 47  1  0
 20 48  1  0
 21 49  1  0
 21 50  1  0
 22 51  1  0
 23 52  1  0
 26 53  1  0
 27 54  1  0
 28 55  1  0
 28 56  1  0
 29 57  1  0
 30 58  1  0
 31 59  1  0
 32 60  1  0
 32 61  1  0
 32 62  1  0
M  END
>  <ALOGPS_LOGP>  (1) 
1.39

>  <ALOGPS_LOGS>  (1) 
-4.71

>  <ALOGPS_SOLUBILITY>  (1) 
8.50e-03 g/l

>  <DATABASE_ID>  (1) 
DB00881

>  <DATABASE_NAME>  (1) 
drugbank

>  <DRUGBANK_ID>  (1) 
DB00881

>  <DRUG_GROUPS>  (1) 
approved; investigational

>  <EXACT_MASS>  (1) 
438.21547208

>  <FORMULA>  (1) 
C25H30N2O5

>  <GENERIC_NAME>  (1) 
Quinapril

>  <INCHI_IDENTIFIER>  (1) 
InChI=1S/C25H30N2O5/c1-3-32-25(31)21(14-13-18-9-5-4-6-10-18)26-17(2)23(28)27-16-20-12-8-7-11-19(20)15-22(27)24(29)30/h4-12,17,21-22,26H,3,13-16H2,1-2H3,(H,29,30)/t17-,21-,22-/m0/s1

>  <INCHI_KEY>  (1) 
JSDRRTOADPPCHY-HSQYWUDLSA-N

>  <INTERNATIONAL_BRANDS>  (1) 
Accuprin; Accupro; Acequin; Acuitel; Korec; Quinazil

>  <JCHEM_ACCEPTOR_COUNT>  (1) 
5

>  <JCHEM_AVERAGE_POLARIZABILITY>  (1) 
47.35801356843769

>  <JCHEM_BIOAVAILABILITY>  (1) 
1

>  <JCHEM_DONOR_COUNT>  (1) 
2

>  <JCHEM_FORMAL_CHARGE>  (1) 
0

>  <JCHEM_GHOSE_FILTER>  (1) 
1

>  <JCHEM_IUPAC>  (1) 
(3S)-2-[(2S)-2-{[(2S)-1-ethoxy-1-oxo-4-phenylbutan-2-yl]amino}propanoyl]-1,2,3,4-tetrahydroisoquinoline-3-carboxylic acid

>  <JCHEM_LOGP>  (1) 
1.9639355816656752

>  <JCHEM_MDDR_LIKE_RULE>  (1) 
1

>  <JCHEM_NUMBER_OF_RINGS>  (1) 
3

>  <JCHEM_PHYSIOLOGICAL_CHARGE>  (1) 
-1

>  <JCHEM_PKA_STRONGEST_ACIDIC>  (1) 
3.7003551795478473

>  <JCHEM_PKA_STRONGEST_BASIC>  (1) 
5.201801337720271

>  <JCHEM_POLAR_SURFACE_AREA>  (1) 
95.93999999999998

>  <JCHEM_REFRACTIVITY>  (1) 
119.95580000000001

>  <JCHEM_ROTATABLE_BOND_COUNT>  (1) 
10

>  <JCHEM_RULE_OF_FIVE>  (1) 
1

>  <JCHEM_TRADITIONAL_IUPAC>  (1) 
quinapril

>  <JCHEM_VEBER_RULE>  (1) 
0

>  <MOLECULAR_WEIGHT>  (1) 
438.5161

>  <PRODUCTS>  (1) 
Accupril; Accupril 5mg Tab; Accupril Tab 10mg; Accupril Tab 20mg; Accupril Tab 40mg; Accuretic; Accuretic 10/12.5 mg; Accuretic 20/12.5 mg; Accuretic 20/25 mg; Apo-quinapril; Apo-quinapril/hctz; Gd-quinapril; Gd-quinapril Hctz; PMS-quinapril; Quinapril; Quinapril HCL and Hydrochlorothiazide; Quinapril Hydrochloride; Quinapril Hydrochloride and Hydrochlorothiazide; Quinapril Hydrochloride/Hydrochlorothiazide; Quinapril and Hydrochlorothiazide 10/12.5; Quinapril and Hydrochlorothiazide 20/12.5; Quinapril and Hydrochlorothiazide 20/25; Ran-quinapril

>  <SALTS>  (1) 
Quinapril Hydrochloride

>  <SECONDARY_ACCESSION_NUMBERS>  (1) 
APRD00523

>  <SMILES>  (1) 
CCOC(=O)[C@H](CCC1=CC=CC=C1)N[C@@H](C)C(=O)N1CC2=CC=CC=C2C[C@H]1C(O)=O

>  <SYNONYMS>  (1) 
Quinaprilum

$$$$
