779
     RDKit          2D

 29 30  0  0  0  0  0  0  0  0999 V2000
    4.2364    1.8563    0.0000 O   0  0  0  0  0  0  0  0  0  0  0  0
    2.0930    0.6188    0.0000 O   0  0  0  0  0  0  0  0  0  0  0  0
    2.8075    1.8563    0.0000 O   0  0  0  0  0  0  0  0  0  0  0  0
    4.2364   -0.6188    0.0000 N   0  0  0  0  0  0  0  0  0  0  0  0
    5.6885   -0.6474    0.0000 N   0  0  0  0  0  0  0  0  0  0  0  0
    4.9509   -0.2063    0.0000 C   0  0  0  0  0  0  0  0  0  0  0  0
    4.9509    0.6188    0.0000 C   0  0  0  0  0  0  0  0  0  0  0  0
    4.2364   -1.4438    0.0000 C   0  0  0  0  0  0  0  0  0  0  0  0
    3.5220   -0.2063    0.0000 C   0  0  0  0  0  0  0  0  0  0  0  0
    3.5220    0.6188    0.0000 C   0  0  0  0  0  0  0  0  0  0  0  0
    4.2364    1.0313    0.0000 C   0  0  0  0  0  0  0  0  0  0  0  0
    5.6885    1.0599    0.0000 C   0  0  0  0  0  0  0  0  0  0  0  0
    6.4359   -0.2234    0.0000 C   0  0  0  0  0  0  0  0  0  0  0  0
    3.5220   -1.8563    0.0000 C   0  0  0  0  0  0  0  0  0  0  0  0
    6.4359    0.6359    0.0000 C   0  0  0  0  0  0  0  0  0  0  0  0
    2.8075    1.0313    0.0000 C   0  0  0  0  0  0  0  0  0  0  0  0
    7.1488   -0.6386    0.0000 C   0  0  0  0  0  0  0  0  0  0  0  0
    0.0000    0.0000    0.0000 H   0  0  0  0  0  0  0  0  0  0  0  0
    0.0000    0.0000    0.0000 H   0  0  0  0  0  0  0  0  0  0  0  0
    0.0000    0.0000    0.0000 H   0  0  0  0  0  0  0  0  0  0  0  0
    0.0000    0.0000    0.0000 H   0  0  0  0  0  0  0  0  0  0  0  0
    0.0000    0.0000    0.0000 H   0  0  0  0  0  0  0  0  0  0  0  0
    0.0000    0.0000    0.0000 H   0  0  0  0  0  0  0  0  0  0  0  0
    0.0000    0.0000    0.0000 H   0  0  0  0  0  0  0  0  0  0  0  0
    0.0000    0.0000    0.0000 H   0  0  0  0  0  0  0  0  0  0  0  0
    0.0000    0.0000    0.0000 H   0  0  0  0  0  0  0  0  0  0  0  0
    0.0000    0.0000    0.0000 H   0  0  0  0  0  0  0  0  0  0  0  0
    0.0000    0.0000    0.0000 H   0  0  0  0  0  0  0  0  0  0  0  0
    0.0000    0.0000    0.0000 H   0  0  0  0  0  0  0  0  0  0  0  0
  1 11  2  0
  2 16  1  0
  3 16  2  0
  4  6  1  0
  4  8  1  0
  4  9  1  0
  5  6  2  0
  5 13  1  0
  6  7  1  0
  7 11  1  0
  7 12  2  0
  8 14  1  0
  9 10  2  0
 10 11  1  0
 10 16  1  0
 12 15  1  0
 13 15  2  0
 13 17  1  0
  2 18  1  0
  8 19  1  0
  8 20  1  0
  9 21  1  0
 12 22  1  0
 14 23  1  0
 14 24  1  0
 14 25  1  0
 15 26  1  0
 17 27  1  0
 17 28  1  0
 17 29  1  0
M  END
>  <ALOGPS_LOGP>  (1) 
0.95

>  <ALOGPS_LOGS>  (1) 
-2.00

>  <ALOGPS_SOLUBILITY>  (1) 
2.30e+00 g/l

>  <DATABASE_ID>  (1) 
DB00779

>  <DATABASE_NAME>  (1) 
drugbank

>  <DRUGBANK_ID>  (1) 
DB00779

>  <DRUG_GROUPS>  (1) 
approved; investigational

>  <EXACT_MASS>  (1) 
232.08479226

>  <FORMULA>  (1) 
C12H12N2O3

>  <GENERIC_NAME>  (1) 
Nalidixic Acid

>  <INCHI_IDENTIFIER>  (1) 
InChI=1S/C12H12N2O3/c1-3-14-6-9(12(16)17)10(15)8-5-4-7(2)13-11(8)14/h4-6H,3H2,1-2H3,(H,16,17)

>  <INCHI_KEY>  (1) 
MHWLWQUZZRMNGJ-UHFFFAOYSA-N

>  <INTERNATIONAL_BRANDS>  (1) 
Adix; Curiemylon; Degram; Delugi; Dixicon; Glanega; Gramazine; Gramoneg; Huei Yi; Lisalenb; Litalon; Nadixin; Nadon; Nagomin; Nal-acid; Nalic; Nalicid; Nalid; Nalidin; Nalidix; Naligram; Nalitomylon; Nalix; Nalixid; Nalixin; Nebactil; Negachine; Nevigramon; Unaserus; Wintomylon; Wintorin; Youdix; Zuno-Nathasid

>  <JCHEM_ACCEPTOR_COUNT>  (1) 
5

>  <JCHEM_AVERAGE_POLARIZABILITY>  (1) 
23.649783745099587

>  <JCHEM_BIOAVAILABILITY>  (1) 
1

>  <JCHEM_DONOR_COUNT>  (1) 
1

>  <JCHEM_FORMAL_CHARGE>  (1) 
0

>  <JCHEM_GHOSE_FILTER>  (1) 
1

>  <JCHEM_IUPAC>  (1) 
1-ethyl-7-methyl-4-oxo-1,4-dihydro-1,8-naphthyridine-3-carboxylic acid

>  <JCHEM_LOGP>  (1) 
1.0082525712681194

>  <JCHEM_MDDR_LIKE_RULE>  (1) 
0

>  <JCHEM_NUMBER_OF_RINGS>  (1) 
2

>  <JCHEM_PHYSIOLOGICAL_CHARGE>  (1) 
-1

>  <JCHEM_PKA_STRONGEST_ACIDIC>  (1) 
5.950252968990619

>  <JCHEM_PKA_STRONGEST_BASIC>  (1) 
4.678220137258441

>  <JCHEM_POLAR_SURFACE_AREA>  (1) 
70.5

>  <JCHEM_REFRACTIVITY>  (1) 
62.8245

>  <JCHEM_ROTATABLE_BOND_COUNT>  (1) 
2

>  <JCHEM_RULE_OF_FIVE>  (1) 
1

>  <JCHEM_TRADITIONAL_IUPAC>  (1) 
nalidixic acid

>  <JCHEM_VEBER_RULE>  (1) 
0

>  <MOLECULAR_WEIGHT>  (1) 
232.2353

>  <PRODUCTS>  (1) 
Neggram

>  <SECONDARY_ACCESSION_NUMBERS>  (1) 
APRD01133

>  <SMILES>  (1) 
CCN1C=C(C(O)=O)C(=O)C2=C1N=C(C)C=C2

>  <SYNONYMS>  (1) 
Acide nalidixique; Acido nalidixico; Acidum Nalidixicum; Nalidixins√§ure

$$$$
