495
     RDKit          2D

 32 33  0  0  1  0  0  0  0  0999 V2000
    4.8558   -1.0026    0.0000 O   0  0  0  0  0  0  0  0  0  0  0  0
    5.9063   -2.3685    0.0000 O   0  0  0  0  0  0  0  0  0  0  0  0
    2.7595    0.3073    0.0000 O   0  0  0  0  0  0  0  0  0  0  0  0
    4.1884    2.7823    0.0000 O   0  0  0  0  0  0  0  0  0  0  0  0
    4.1884    0.3073    0.0000 N   0  0  0  0  0  0  0  0  0  0  0  0
    3.2909   -2.4547    0.0000 N   0  0  0  0  0  0  0  0  0  0  0  0
    3.4739    1.5448    0.0000 N   0  0  0  0  0  0  0  0  0  0  0  0
    2.4705   -2.3685    0.0000 N   0  0  0  0  0  0  0  0  0  0  0  0
    1.6500   -2.2822    0.0000 N   0  0  0  0  0  0  0  0  0  0  0  0
    3.7759   -1.7873    0.0000 C   0  0  0  0  0  0  0  0  0  0  0  0
    4.1884   -0.5177    0.0000 C   0  0  0  0  0  0  0  0  0  0  0  0
    3.5210   -1.0026    0.0000 C   0  0  0  0  0  0  0  0  0  0  0  0
    4.6009   -1.7873    0.0000 C   0  0  0  0  0  0  0  0  0  0  0  0
    5.0858   -2.4547    0.0000 C   0  0  0  0  0  0  0  0  0  0  0  0
    4.9029    0.7198    0.0000 C   0  0  0  0  0  0  0  0  0  0  0  0
    3.4739    0.7198    0.0000 C   0  0  0  0  0  0  0  0  0  0  0  0
    4.9029    1.5448    0.0000 C   0  0  0  0  0  0  0  0  0  0  0  0
    4.1884    1.9573    0.0000 C   0  0  0  0  0  0  0  0  0  0  0  0
    5.6174    1.9573    0.0000 C   0  0  0  0  0  0  0  0  0  0  0  0
    0.0000    0.0000    0.0000 H   0  0  0  0  0  0  0  0  0  0  0  0
    0.0000    0.0000    0.0000 H   0  0  0  0  0  0  0  0  0  0  0  0
    0.0000    0.0000    0.0000 H   0  0  0  0  0  0  0  0  0  0  0  0
    0.0000    0.0000    0.0000 H   0  0  0  0  0  0  0  0  0  0  0  0
    0.0000    0.0000    0.0000 H   0  0  0  0  0  0  0  0  0  0  0  0
    0.0000    0.0000    0.0000 H   0  0  0  0  0  0  0  0  0  0  0  0
    0.0000    0.0000    0.0000 H   0  0  0  0  0  0  0  0  0  0  0  0
    0.0000    0.0000    0.0000 H   0  0  0  0  0  0  0  0  0  0  0  0
    0.0000    0.0000    0.0000 H   0  0  0  0  0  0  0  0  0  0  0  0
    0.0000    0.0000    0.0000 H   0  0  0  0  0  0  0  0  0  0  0  0
    0.0000    0.0000    0.0000 H   0  0  0  0  0  0  0  0  0  0  0  0
    0.0000    0.0000    0.0000 H   0  0  0  0  0  0  0  0  0  0  0  0
    0.0000    0.0000    0.0000 H   0  0  0  0  0  0  0  0  0  0  0  0
  1 11  1  0
  1 13  1  0
  2 14  1  0
  3 16  2  0
  4 18  2  0
 11  5  1  6
  5 15  1  0
  5 16  1  0
  6  8  2  3
 10  6  1  1
  7 16  1  0
  7 18  1  0
  8  9  2  0
 10 12  1  0
 10 13  1  0
 11 12  1  0
 13 14  1  1
 15 17  2  0
 17 18  1  0
 17 19  1  0
  2 20  1  0
  7 21  1  0
 10 22  1  0
 11 23  1  0
 12 24  1  0
 12 25  1  0
 13 26  1  0
 14 27  1  0
 14 28  1  0
 15 29  1  0
 19 30  1  0
 19 31  1  0
 19 32  1  0
M  CHG  2   8   1   9  -1
M  END
>  <ALOGPS_LOGP>  (1) 
-0.10

>  <ALOGPS_LOGS>  (1) 
-1.21

>  <ALOGPS_SOLUBILITY>  (1) 
1.63e+01 g/l

>  <DATABASE_ID>  (1) 
DB00495

>  <DATABASE_NAME>  (1) 
drugbank

>  <DRUGBANK_ID>  (1) 
DB00495

>  <DRUG_GROUPS>  (1) 
approved

>  <EXACT_MASS>  (1) 
267.096753929

>  <FORMULA>  (1) 
C10H13N5O4

>  <GENERIC_NAME>  (1) 
Zidovudine

>  <INCHI_IDENTIFIER>  (1) 
InChI=1S/C10H13N5O4/c1-5-3-15(10(18)12-9(5)17)8-2-6(13-14-11)7(4-16)19-8/h3,6-8,16H,2,4H2,1H3,(H,12,17,18)/t6-,7+,8+/m0/s1

>  <INCHI_KEY>  (1) 
HBOMLICNUCNMMY-XLPZGREQSA-N

>  <JCHEM_ACCEPTOR_COUNT>  (1) 
6

>  <JCHEM_AVERAGE_POLARIZABILITY>  (1) 
24.928979599075536

>  <JCHEM_BIOAVAILABILITY>  (1) 
1

>  <JCHEM_DONOR_COUNT>  (1) 
2

>  <JCHEM_FORMAL_CHARGE>  (1) 
0

>  <JCHEM_GHOSE_FILTER>  (1) 
1

>  <JCHEM_IUPAC>  (1) 
1-[(2R,4S,5S)-4-azido-5-(hydroxymethyl)oxolan-2-yl]-5-methyl-1,2,3,4-tetrahydropyrimidine-2,4-dione

>  <JCHEM_LOGP>  (1) 
-0.2987091583333329

>  <JCHEM_MDDR_LIKE_RULE>  (1) 
0

>  <JCHEM_NUMBER_OF_RINGS>  (1) 
2

>  <JCHEM_PHYSIOLOGICAL_CHARGE>  (1) 
0

>  <JCHEM_PKA>  (1) 
9.960417759065093

>  <JCHEM_PKA_STRONGEST_ACIDIC>  (1) 
9.96041555648723

>  <JCHEM_PKA_STRONGEST_BASIC>  (1) 
-2.9769294063535847

>  <JCHEM_POLAR_SURFACE_AREA>  (1) 
108.30000000000001

>  <JCHEM_REFRACTIVITY>  (1) 
61.70450000000001

>  <JCHEM_ROTATABLE_BOND_COUNT>  (1) 
3

>  <JCHEM_RULE_OF_FIVE>  (1) 
1

>  <JCHEM_TRADITIONAL_IUPAC>  (1) 
zidovudine

>  <JCHEM_VEBER_RULE>  (1) 
0

>  <MOLECULAR_WEIGHT>  (1) 
267.2413

>  <PRODUCTS>  (1) 
Abacavir Sulfate, Lamivudine and Zidovudine; Abacavir, Lamivudine and Zidovudine; Apo-abacavir-lamivudine-zidovudine; Apo-lamivudine-zidovudine; Apo-zidovudine; Apo-zidovudine-lamivudine-nevirapine; Auro-lamivudine/zidovudine; Combivir; LAMIVUDINE and ZIDOVUDINE; Lamivudine Zidovudine; Lamivudine and Zidovudine; Novo-azt Cap 100mg; Retrovir; Retrovir (azt); Retrovir (azt)   300mg; Teva-lamivudine/zidovudine; Trizivir; Zidovudine

>  <SECONDARY_ACCESSION_NUMBERS>  (1) 
APRD00449

>  <SMILES>  (1) 
CC1=CN([C@H]2C[C@H](N=[N+]=[N-])[C@@H](CO)O2)C(=O)NC1=O

>  <SYNONYMS>  (1) 
Azidothymidine; AZT; ZDV

$$$$
