746
     RDKit          2D

 87 86  0  0  0  0  0  0  0  0999 V2000
   14.2380   -1.0312    0.0000 O   0  0  0  0  0  0  0  0  0  0  0  0
    6.3793    1.0312    0.0000 O   0  0  0  0  0  0  0  0  0  0  0  0
   14.9524    1.0312    0.0000 O   0  0  0  0  0  0  0  0  0  0  0  0
    9.2371    1.0312    0.0000 O   0  0  0  0  0  0  0  0  0  0  0  0
   17.0957   -1.0312    0.0000 O   0  0  0  0  0  0  0  0  0  0  0  0
   22.0966    1.0312    0.0000 O   0  0  0  0  0  0  0  0  0  0  0  0
    7.0938   -1.0312    0.0000 O   0  0  0  0  0  0  0  0  0  0  0  0
   22.8111   -1.0312    0.0000 O   0  0  0  0  0  0  0  0  0  0  0  0
   14.2380   -0.2063    0.0000 N   0  0  0  0  0  0  0  0  0  0  0  0
    9.9515   -0.2063    0.0000 N   0  0  0  0  0  0  0  0  0  0  0  0
   17.8101    0.2063    0.0000 N   0  0  0  0  0  0  0  0  0  0  0  0
    6.3793    0.2063    0.0000 N   0  0  0  0  0  0  0  0  0  0  0  0
   22.0966    0.2063    0.0000 N   0  0  0  0  0  0  0  0  0  0  0  0
    2.0928    0.2063    0.0000 N   0  0  0  0  0  0  0  0  0  0  0  0
   12.0947    0.2063    0.0000 C   0  0  0  0  0  0  0  0  0  0  0  0
   12.8091   -0.2063    0.0000 C   0  0  0  0  0  0  0  0  0  0  0  0
   11.3804   -0.2063    0.0000 C   0  0  0  0  0  0  0  0  0  0  0  0
   19.9534   -0.2063    0.0000 C   0  0  0  0  0  0  0  0  0  0  0  0
   13.5236    0.2063    0.0000 C   0  0  0  0  0  0  0  0  0  0  0  0
   19.2389    0.2063    0.0000 C   0  0  0  0  0  0  0  0  0  0  0  0
   10.6658    0.2063    0.0000 C   0  0  0  0  0  0  0  0  0  0  0  0
   20.6678    0.2063    0.0000 C   0  0  0  0  0  0  0  0  0  0  0  0
    4.9504    0.2063    0.0000 C   0  0  0  0  0  0  0  0  0  0  0  0
    4.2361   -0.2063    0.0000 C   0  0  0  0  0  0  0  0  0  0  0  0
   18.5245   -0.2063    0.0000 C   0  0  0  0  0  0  0  0  0  0  0  0
    5.6650   -0.2063    0.0000 C   0  0  0  0  0  0  0  0  0  0  0  0
    3.5217    0.2063    0.0000 C   0  0  0  0  0  0  0  0  0  0  0  0
   21.3822   -0.2063    0.0000 C   0  0  0  0  0  0  0  0  0  0  0  0
   15.6668   -0.2063    0.0000 C   0  0  0  0  0  0  0  0  0  0  0  0
   16.3812    0.2063    0.0000 C   0  0  0  0  0  0  0  0  0  0  0  0
    8.5226   -0.2063    0.0000 C   0  0  0  0  0  0  0  0  0  0  0  0
    7.8082    0.2063    0.0000 C   0  0  0  0  0  0  0  0  0  0  0  0
   14.9524    0.2063    0.0000 C   0  0  0  0  0  0  0  0  0  0  0  0
    9.2371    0.2063    0.0000 C   0  0  0  0  0  0  0  0  0  0  0  0
   17.0957   -0.2063    0.0000 C   0  0  0  0  0  0  0  0  0  0  0  0
    2.8072   -0.2063    0.0000 C   0  0  0  0  0  0  0  0  0  0  0  0
    7.0938   -0.2063    0.0000 C   0  0  0  0  0  0  0  0  0  0  0  0
   22.8111   -0.2063    0.0000 C   0  0  0  0  0  0  0  0  0  0  0  0
   23.5255    0.2063    0.0000 C   0  0  0  0  0  0  0  0  0  0  0  0
    0.0000    0.0000    0.0000 H   0  0  0  0  0  0  0  0  0  0  0  0
    0.0000    0.0000    0.0000 H   0  0  0  0  0  0  0  0  0  0  0  0
    0.0000    0.0000    0.0000 H   0  0  0  0  0  0  0  0  0  0  0  0
    0.0000    0.0000    0.0000 H   0  0  0  0  0  0  0  0  0  0  0  0
    0.0000    0.0000    0.0000 H   0  0  0  0  0  0  0  0  0  0  0  0
    0.0000    0.0000    0.0000 H   0  0  0  0  0  0  0  0  0  0  0  0
    0.0000    0.0000    0.0000 H   0  0  0  0  0  0  0  0  0  0  0  0
    0.0000    0.0000    0.0000 H   0  0  0  0  0  0  0  0  0  0  0  0
    0.0000    0.0000    0.0000 H   0  0  0  0  0  0  0  0  0  0  0  0
    0.0000    0.0000    0.0000 H   0  0  0  0  0  0  0  0  0  0  0  0
    0.0000    0.0000    0.0000 H   0  0  0  0  0  0  0  0  0  0  0  0
    0.0000    0.0000    0.0000 H   0  0  0  0  0  0  0  0  0  0  0  0
    0.0000    0.0000    0.0000 H   0  0  0  0  0  0  0  0  0  0  0  0
    0.0000    0.0000    0.0000 H   0  0  0  0  0  0  0  0  0  0  0  0
    0.0000    0.0000    0.0000 H   0  0  0  0  0  0  0  0  0  0  0  0
    0.0000    0.0000    0.0000 H   0  0  0  0  0  0  0  0  0  0  0  0
    0.0000    0.0000    0.0000 H   0  0  0  0  0  0  0  0  0  0  0  0
    0.0000    0.0000    0.0000 H   0  0  0  0  0  0  0  0  0  0  0  0
    0.0000    0.0000    0.0000 H   0  0  0  0  0  0  0  0  0  0  0  0
    0.0000    0.0000    0.0000 H   0  0  0  0  0  0  0  0  0  0  0  0
    0.0000    0.0000    0.0000 H   0  0  0  0  0  0  0  0  0  0  0  0
    0.0000    0.0000    0.0000 H   0  0  0  0  0  0  0  0  0  0  0  0
    0.0000    0.0000    0.0000 H   0  0  0  0  0  0  0  0  0  0  0  0
    0.0000    0.0000    0.0000 H   0  0  0  0  0  0  0  0  0  0  0  0
    0.0000    0.0000    0.0000 H   0  0  0  0  0  0  0  0  0  0  0  0
    0.0000    0.0000    0.0000 H   0  0  0  0  0  0  0  0  0  0  0  0
    0.0000    0.0000    0.0000 H   0  0  0  0  0  0  0  0  0  0  0  0
    0.0000    0.0000    0.0000 H   0  0  0  0  0  0  0  0  0  0  0  0
    0.0000    0.0000    0.0000 H   0  0  0  0  0  0  0  0  0  0  0  0
    0.0000    0.0000    0.0000 H   0  0  0  0  0  0  0  0  0  0  0  0
    0.0000    0.0000    0.0000 H   0  0  0  0  0  0  0  0  0  0  0  0
    0.0000    0.0000    0.0000 H   0  0  0  0  0  0  0  0  0  0  0  0
    0.0000    0.0000    0.0000 H   0  0  0  0  0  0  0  0  0  0  0  0
    0.0000    0.0000    0.0000 H   0  0  0  0  0  0  0  0  0  0  0  0
    0.0000    0.0000    0.0000 H   0  0  0  0  0  0  0  0  0  0  0  0
    0.0000    0.0000    0.0000 H   0  0  0  0  0  0  0  0  0  0  0  0
    0.0000    0.0000    0.0000 H   0  0  0  0  0  0  0  0  0  0  0  0
    0.0000    0.0000    0.0000 H   0  0  0  0  0  0  0  0  0  0  0  0
    0.0000    0.0000    0.0000 H   0  0  0  0  0  0  0  0  0  0  0  0
    0.0000    0.0000    0.0000 H   0  0  0  0  0  0  0  0  0  0  0  0
    0.0000    0.0000    0.0000 H   0  0  0  0  0  0  0  0  0  0  0  0
    0.0000    0.0000    0.0000 H   0  0  0  0  0  0  0  0  0  0  0  0
    0.0000    0.0000    0.0000 H   0  0  0  0  0  0  0  0  0  0  0  0
    0.0000    0.0000    0.0000 H   0  0  0  0  0  0  0  0  0  0  0  0
    0.0000    0.0000    0.0000 H   0  0  0  0  0  0  0  0  0  0  0  0
    0.0000    0.0000    0.0000 H   0  0  0  0  0  0  0  0  0  0  0  0
    0.0000    0.0000    0.0000 H   0  0  0  0  0  0  0  0  0  0  0  0
    0.0000    0.0000    0.0000 H   0  0  0  0  0  0  0  0  0  0  0  0
  1  9  1  0
  2 12  1  0
  3 33  2  0
  4 34  2  0
  5 35  2  0
  6 13  1  0
  7 37  2  0
  8 38  2  0
  9 19  1  0
  9 33  1  0
 10 21  1  0
 10 34  1  0
 11 25  1  0
 11 35  1  0
 12 26  1  0
 12 37  1  0
 13 28  1  0
 13 38  1  0
 14 36  1  0
 15 16  1  0
 15 17  1  0
 16 19  1  0
 17 21  1  0
 18 20  1  0
 18 22  1  0
 20 25  1  0
 22 28  1  0
 23 24  1  0
 23 26  1  0
 24 27  1  0
 27 36  1  0
 29 30  1  0
 29 33  1  0
 30 35  1  0
 31 32  1  0
 31 34  1  0
 32 37  1  0
 38 39  1  0
  1 40  1  0
  2 41  1  0
  6 42  1  0
 10 43  1  0
 11 44  1  0
 14 45  1  0
 14 46  1  0
 15 47  1  0
 15 48  1  0
 16 49  1  0
 16 50  1  0
 17 51  1  0
 17 52  1  0
 18 53  1  0
 18 54  1  0
 19 55  1  0
 19 56  1  0
 20 57  1  0
 20 58  1  0
 21 59  1  0
 21 60  1  0
 22 61  1  0
 22 62  1  0
 23 63  1  0
 23 64  1  0
 24 65  1  0
 24 66  1  0
 25 67  1  0
 25 68  1  0
 26 69  1  0
 26 70  1  0
 27 71  1  0
 27 72  1  0
 28 73  1  0
 28 74  1  0
 29 75  1  0
 29 76  1  0
 30 77  1  0
 30 78  1  0
 31 79  1  0
 31 80  1  0
 32 81  1  0
 32 82  1  0
 36 83  1  0
 36 84  1  0
 39 85  1  0
 39 86  1  0
 39 87  1  0
M  END
>  <ALOGPS_LOGP>  (1) 
0.93

>  <ALOGPS_LOGS>  (1) 
-3.75

>  <ALOGPS_SOLUBILITY>  (1) 
9.90e-02 g/l

>  <DATABASE_ID>  (1) 
DB00746

>  <DATABASE_NAME>  (1) 
drugbank

>  <DRUGBANK_ID>  (1) 
DB00746

>  <DRUG_GROUPS>  (1) 
approved; investigational

>  <EXACT_MASS>  (1) 
560.353362542

>  <FORMULA>  (1) 
C25H48N6O8

>  <GENERIC_NAME>  (1) 
Deferoxamine

>  <INCHI_IDENTIFIER>  (1) 
InChI=1S/C25H48N6O8/c1-21(32)29(37)18-9-3-6-16-27-22(33)12-14-25(36)31(39)20-10-4-7-17-28-23(34)11-13-24(35)30(38)19-8-2-5-15-26/h37-39H,2-20,26H2,1H3,(H,27,33)(H,28,34)

>  <INCHI_KEY>  (1) 
UBQYURCVBFRUQT-UHFFFAOYSA-N

>  <INTERNATIONAL_BRANDS>  (1) 
Desferin

>  <JCHEM_ACCEPTOR_COUNT>  (1) 
9

>  <JCHEM_AVERAGE_POLARIZABILITY>  (1) 
62.40535254154213

>  <JCHEM_BIOAVAILABILITY>  (1) 
0

>  <JCHEM_DONOR_COUNT>  (1) 
6

>  <JCHEM_FORMAL_CHARGE>  (1) 
0

>  <JCHEM_GHOSE_FILTER>  (1) 
0

>  <JCHEM_IUPAC>  (1) 
N-(5-aminopentyl)-N-hydroxy-N'-[5-(N-hydroxy-3-{[5-(N-hydroxyacetamido)pentyl]carbamoyl}propanamido)pentyl]butanediamide

>  <JCHEM_LOGP>  (1) 
-3.3651618260693423

>  <JCHEM_MDDR_LIKE_RULE>  (1) 
0

>  <JCHEM_NUMBER_OF_RINGS>  (1) 
0

>  <JCHEM_PHYSIOLOGICAL_CHARGE>  (1) 
1

>  <JCHEM_PKA>  (1) 
8.390588453904945

>  <JCHEM_PKA_STRONGEST_ACIDIC>  (1) 
7.915494126454605

>  <JCHEM_PKA_STRONGEST_BASIC>  (1) 
10.225199409093682

>  <JCHEM_POLAR_SURFACE_AREA>  (1) 
205.84000000000003

>  <JCHEM_REFRACTIVITY>  (1) 
144.9508

>  <JCHEM_ROTATABLE_BOND_COUNT>  (1) 
23

>  <JCHEM_RULE_OF_FIVE>  (1) 
0

>  <JCHEM_TRADITIONAL_IUPAC>  (1) 
N-(5-aminopentyl)-N-hydroxy-N'-[5-(N-hydroxy-3-{[5-(N-hydroxyacetamido)pentyl]carbamoyl}propanamido)pentyl]succinamide

>  <JCHEM_VEBER_RULE>  (1) 
0

>  <MOLECULAR_WEIGHT>  (1) 
560.684

>  <PRODUCTS>  (1) 
Deferoxamine; Deferoxamine Mesylate; Deferoxamine Mesylate for Injection; Deferoxamine mesylate; Desferal; Desferal 2g; Desferal 500mg; PMS-deferoxamine

>  <SALTS>  (1) 
Deferoxamine Hydrochloride; Deferoxamine mesylate

>  <SECONDARY_ACCESSION_NUMBERS>  (1) 
APRD00904

>  <SMILES>  (1) 
CC(=O)N(O)CCCCCNC(=O)CCC(=O)N(O)CCCCCNC(=O)CCC(=O)N(O)CCCCCN

>  <SYNONYMS>  (1) 
Deferoxamin; Deferoxamina; DÃ©feroxamine; Deferoxaminum; Desferrioxamine; DFOA; DFOM

$$$$
