919
     RDKit          2D

 47 49  0  0  1  0  0  0  0  0999 V2000
    5.0678    0.7104    0.0000 O   0  0  0  0  0  0  0  0  0  0  0  0
    5.0678   -0.8737    0.0000 O   0  0  0  0  0  0  0  0  0  0  0  0
    6.4618   -0.9013    0.0000 O   0  0  0  0  0  0  0  0  0  0  0  0
    3.6830   -1.6932    0.0000 O   0  0  0  0  0  0  0  0  0  0  0  0
    2.2716    0.7295    0.0000 O   0  0  0  0  0  0  0  0  0  0  0  0
    5.7538    1.1065    0.0000 O   0  0  0  0  0  0  0  0  0  0  0  0
    6.4527    1.5299    0.0000 O   0  0  0  0  0  0  0  0  0  0  0  0
    3.6830    1.5299    0.0000 N   0  0  0  0  0  0  0  0  0  0  0  0
    2.2716   -0.8929    0.0000 N   0  0  0  0  0  0  0  0  0  0  0  0
    4.3818    0.3143    0.0000 C   0  0  0  0  0  0  0  0  0  0  0  0
    4.3818   -0.4777    0.0000 C   0  0  0  0  0  0  0  0  0  0  0  0
    3.6737    0.7379    0.0000 C   0  0  0  0  0  0  0  0  0  0  0  0
    3.6737   -0.9013    0.0000 C   0  0  0  0  0  0  0  0  0  0  0  0
    2.9560   -0.4942    0.0000 C   0  0  0  0  0  0  0  0  0  0  0  0
    2.9560    0.3309    0.0000 C   0  0  0  0  0  0  0  0  0  0  0  0
    5.7538    0.3143    0.0000 C   0  0  0  0  0  0  0  0  0  0  0  0
    5.7538   -0.4777    0.0000 C   0  0  0  0  0  0  0  0  0  0  0  0
    6.4618    0.7379    0.0000 C   0  0  0  0  0  0  0  0  0  0  0  0
    7.1795   -0.4942    0.0000 C   0  0  0  0  0  0  0  0  0  0  0  0
    7.1795    0.3309    0.0000 C   0  0  0  0  0  0  0  0  0  0  0  0
    3.0016    1.9339    0.0000 C   0  0  0  0  0  0  0  0  0  0  0  0
    1.5841   -0.4995    0.0000 C   0  0  0  0  0  0  0  0  0  0  0  0
    7.8639   -0.8929    0.0000 C   0  0  0  0  0  0  0  0  0  0  0  0
    0.0000    0.0000    0.0000 H   0  0  0  0  0  0  0  0  0  0  0  0
    0.0000    0.0000    0.0000 H   0  0  0  0  0  0  0  0  0  0  0  0
    0.0000    0.0000    0.0000 H   0  0  0  0  0  0  0  0  0  0  0  0
    0.0000    0.0000    0.0000 H   0  0  0  0  0  0  0  0  0  0  0  0
    0.0000    0.0000    0.0000 H   0  0  0  0  0  0  0  0  0  0  0  0
    0.0000    0.0000    0.0000 H   0  0  0  0  0  0  0  0  0  0  0  0
    0.0000    0.0000    0.0000 H   0  0  0  0  0  0  0  0  0  0  0  0
    0.0000    0.0000    0.0000 H   0  0  0  0  0  0  0  0  0  0  0  0
    0.0000    0.0000    0.0000 H   0  0  0  0  0  0  0  0  0  0  0  0
    0.0000    0.0000    0.0000 H   0  0  0  0  0  0  0  0  0  0  0  0
    0.0000    0.0000    0.0000 H   0  0  0  0  0  0  0  0  0  0  0  0
    0.0000    0.0000    0.0000 H   0  0  0  0  0  0  0  0  0  0  0  0
    0.0000    0.0000    0.0000 H   0  0  0  0  0  0  0  0  0  0  0  0
    0.0000    0.0000    0.0000 H   0  0  0  0  0  0  0  0  0  0  0  0
    0.0000    0.0000    0.0000 H   0  0  0  0  0  0  0  0  0  0  0  0
    0.0000    0.0000    0.0000 H   0  0  0  0  0  0  0  0  0  0  0  0
    0.0000    0.0000    0.0000 H   0  0  0  0  0  0  0  0  0  0  0  0
    0.0000    0.0000    0.0000 H   0  0  0  0  0  0  0  0  0  0  0  0
    0.0000    0.0000    0.0000 H   0  0  0  0  0  0  0  0  0  0  0  0
    0.0000    0.0000    0.0000 H   0  0  0  0  0  0  0  0  0  0  0  0
    0.0000    0.0000    0.0000 H   0  0  0  0  0  0  0  0  0  0  0  0
    0.0000    0.0000    0.0000 H   0  0  0  0  0  0  0  0  0  0  0  0
    0.0000    0.0000    0.0000 H   0  0  0  0  0  0  0  0  0  0  0  0
    0.0000    0.0000    0.0000 H   0  0  0  0  0  0  0  0  0  0  0  0
  1 10  1  0
  1 16  1  0
  2 11  1  0
  2 17  1  0
  3 17  1  0
  3 19  1  0
 13  4  1  1
 15  5  1  6
 16  6  1  6
  7 18  2  0
 12  8  1  6
  8 21  1  0
 14  9  1  6
  9 22  1  0
 10 11  1  0
 10 12  1  0
 11 13  1  0
 12 15  1  0
 13 14  1  0
 14 15  1  0
 16 17  1  0
 16 18  1  0
 18 20  1  0
 19 20  1  0
 19 23  1  6
  4 24  1  0
  5 25  1  0
  6 26  1  0
  8 27  1  0
  9 28  1  0
 10 29  1  6
 11 30  1  1
 12 31  1  0
 13 32  1  0
 14 33  1  0
 15 34  1  0
 17 35  1  6
 19 36  1  0
 20 37  1  0
 20 38  1  0
 21 39  1  0
 21 40  1  0
 21 41  1  0
 22 42  1  0
 22 43  1  0
 22 44  1  0
 23 45  1  0
 23 46  1  0
 23 47  1  0
M  END
>  <ALOGPS_LOGP>  (1) 
-1.40

>  <ALOGPS_LOGS>  (1) 
-0.35

>  <ALOGPS_SOLUBILITY>  (1) 
1.50e+02 g/l

>  <DATABASE_ID>  (1) 
DB00919

>  <DATABASE_NAME>  (1) 
drugbank

>  <DRUGBANK_ID>  (1) 
DB00919

>  <DRUG_GROUPS>  (1) 
approved; investigational; vet_approved

>  <EXACT_MASS>  (1) 
332.158351132

>  <FORMULA>  (1) 
C14H24N2O7

>  <GENERIC_NAME>  (1) 
Spectinomycin

>  <INCHI_IDENTIFIER>  (1) 
InChI=1S/C14H24N2O7/c1-5-4-6(17)14(20)13(21-5)22-12-10(19)7(15-2)9(18)8(16-3)11(12)23-14/h5,7-13,15-16,18-20H,4H2,1-3H3/t5-,7-,8+,9+,10+,11-,12-,13+,14+/m1/s1

>  <INCHI_KEY>  (1) 
UNFWWIHTNXNPBV-WXKVUWSESA-N

>  <INTERNATIONAL_BRANDS>  (1) 
Actinospectacin; Spectam; Togamycin; Trobicin

>  <JCHEM_ACCEPTOR_COUNT>  (1) 
9

>  <JCHEM_AVERAGE_POLARIZABILITY>  (1) 
33.39375850665531

>  <JCHEM_BIOAVAILABILITY>  (1) 
1

>  <JCHEM_DONOR_COUNT>  (1) 
5

>  <JCHEM_FORMAL_CHARGE>  (1) 
0

>  <JCHEM_GHOSE_FILTER>  (1) 
0

>  <JCHEM_IUPAC>  (1) 
(1R,3S,5R,8R,10R,11S,12S,13R,14S)-8,12,14-trihydroxy-5-methyl-11,13-bis(methylamino)-2,4,9-trioxatricyclo[8.4.0.0³,⁸]tetradecan-7-one

>  <JCHEM_LOGP>  (1) 
-2.369337286793146

>  <JCHEM_MDDR_LIKE_RULE>  (1) 
0

>  <JCHEM_NUMBER_OF_RINGS>  (1) 
3

>  <JCHEM_PHYSIOLOGICAL_CHARGE>  (1) 
2

>  <JCHEM_PKA>  (1) 
13.2837099858573

>  <JCHEM_PKA_STRONGEST_ACIDIC>  (1) 
8.576981246087254

>  <JCHEM_PKA_STRONGEST_BASIC>  (1) 
9.398081590100476

>  <JCHEM_POLAR_SURFACE_AREA>  (1) 
129.51000000000002

>  <JCHEM_REFRACTIVITY>  (1) 
75.43620000000001

>  <JCHEM_ROTATABLE_BOND_COUNT>  (1) 
2

>  <JCHEM_RULE_OF_FIVE>  (1) 
1

>  <JCHEM_TRADITIONAL_IUPAC>  (1) 
prospec

>  <JCHEM_VEBER_RULE>  (1) 
0

>  <MOLECULAR_WEIGHT>  (1) 
332.3496

>  <PRODUCTS>  (1) 
Trobicin Inj 400mg/ml

>  <SALTS>  (1) 
Spectinomycin dihydrochloride pentahydrate; Spectinomycin hydrochloride; Spectinomycin hydrochloride pentahydrate; Spectinomycin sulfate; Spectinomycin sulfate tetrahydrate

>  <SECONDARY_ACCESSION_NUMBERS>  (1) 
APRD01232

>  <SMILES>  (1) 
[H][C@@]12O[C@H](C)CC(=O)[C@]1(O)O[C@]1([H])[C@@H](NC)[C@@H](O)[C@@H](NC)[C@H](O)[C@@]1([H])O2

>  <SYNONYMS>  (1) 
Actinospectacina; Espectinomicina; SCM; Spectinomicina; Spectinomycine; Spectinomycinum

$$$$
