
     RDKit          2D

 26 26  0  0  0  0  0  0  0  0999 V2000
   -0.0308    0.7026    0.0000 C   0  0  0  0  0  0  0  0  0  0  0  0
    0.3817   -0.5669    0.0000 S   0  0  0  0  0  0  0  0  0  0  0  0
   -0.6982    0.2177    0.0000 C   0  0  0  0  0  0  0  0  0  0  0  0
   -0.4433   -0.5669    0.0000 S   0  0  0  0  0  0  0  0  0  0  0  0
    0.6366    0.2177    0.0000 C   0  0  0  0  0  0  0  0  0  0  0  0
    1.3511    0.6302    0.0000 C   0  0  0  0  0  0  0  0  0  0  0  0
    2.0656    0.2177    0.0000 C   0  0  0  0  0  0  0  0  0  0  0  0
    2.7801    0.6302    0.0000 C   0  0  0  0  0  0  0  0  0  0  0  0
    3.4945    0.2177    0.0000 C   0  0  0  0  0  0  0  0  0  0  0  0
    4.2090    0.6302    0.0000 C   0  0  0  0  0  0  0  0  0  0  0  0
    4.2090    1.4552    0.0000 O   0  0  0  0  0  0  0  0  0  0  0  0
    4.9235    0.2177    0.0000 O   0  0  0  0  0  0  0  0  0  0  0  0
    0.0000    0.0000    0.0000 H   0  0  0  0  0  0  0  0  0  0  0  0
    0.0000    0.0000    0.0000 H   0  0  0  0  0  0  0  0  0  0  0  0
    0.0000    0.0000    0.0000 H   0  0  0  0  0  0  0  0  0  0  0  0
    0.0000    0.0000    0.0000 H   0  0  0  0  0  0  0  0  0  0  0  0
    0.0000    0.0000    0.0000 H   0  0  0  0  0  0  0  0  0  0  0  0
    0.0000    0.0000    0.0000 H   0  0  0  0  0  0  0  0  0  0  0  0
    0.0000    0.0000    0.0000 H   0  0  0  0  0  0  0  0  0  0  0  0
    0.0000    0.0000    0.0000 H   0  0  0  0  0  0  0  0  0  0  0  0
    0.0000    0.0000    0.0000 H   0  0  0  0  0  0  0  0  0  0  0  0
    0.0000    0.0000    0.0000 H   0  0  0  0  0  0  0  0  0  0  0  0
    0.0000    0.0000    0.0000 H   0  0  0  0  0  0  0  0  0  0  0  0
    0.0000    0.0000    0.0000 H   0  0  0  0  0  0  0  0  0  0  0  0
    0.0000    0.0000    0.0000 H   0  0  0  0  0  0  0  0  0  0  0  0
    0.0000    0.0000    0.0000 H   0  0  0  0  0  0  0  0  0  0  0  0
  5  1  1  0
  5  2  1  0
  1  3  1  0
  2  4  1  0
  3  4  1  0
  5  6  1  6
  6  7  1  0
  7  8  1  0
  8  9  1  0
  9 10  1  0
 10 12  1  0
 10 11  2  0
  1 13  1  0
  1 14  1  0
  3 15  1  0
  3 16  1  0
  5 17  1  0
  6 18  1  0
  6 19  1  0
  7 20  1  0
  7 21  1  0
  8 22  1  0
  8 23  1  0
  9 24  1  0
  9 25  1  0
 12 26  1  0
M  END
>  <ALOGPS_LOGP>  (1) 
2.75

>  <ALOGPS_LOGS>  (1) 
-2.96

>  <ALOGPS_SOLUBILITY>  (1) 
2.24e-01 g/l

>  <DATABASE_ID>  (1) 
DB00166

>  <DATABASE_NAME>  (1) 
drugbank

>  <DRUGBANK_ID>  (1) 
DB00166

>  <DRUG_GROUPS>  (1) 
approved; nutraceutical

>  <EXACT_MASS>  (1) 
206.043521072

>  <FORMULA>  (1) 
C8H14O2S2

>  <GENERIC_NAME>  (1) 
Lipoic Acid

>  <INCHI_IDENTIFIER>  (1) 
InChI=1S/C8H14O2S2/c9-8(10)4-2-1-3-7-5-6-11-12-7/h7H,1-6H2,(H,9,10)/t7-/m1/s1

>  <INCHI_KEY>  (1) 
AGBQKNBQESQNJD-SSDOTTSWSA-N

>  <INTERNATIONAL_BRANDS>  (1) 
Biletan

>  <JCHEM_ACCEPTOR_COUNT>  (1) 
2

>  <JCHEM_AVERAGE_POLARIZABILITY>  (1) 
21.74497542893942

>  <JCHEM_BIOAVAILABILITY>  (1) 
1

>  <JCHEM_DONOR_COUNT>  (1) 
1

>  <JCHEM_FORMAL_CHARGE>  (1) 
0

>  <JCHEM_GHOSE_FILTER>  (1) 
1

>  <JCHEM_IUPAC>  (1) 
5-[(3R)-1,2-dithiolan-3-yl]pentanoic acid

>  <JCHEM_LOGP>  (1) 
2.1137794076666667

>  <JCHEM_MDDR_LIKE_RULE>  (1) 
0

>  <JCHEM_NUMBER_OF_RINGS>  (1) 
1

>  <JCHEM_PHYSIOLOGICAL_CHARGE>  (1) 
-1

>  <JCHEM_PKA_STRONGEST_ACIDIC>  (1) 
4.523468122735193

>  <JCHEM_POLAR_SURFACE_AREA>  (1) 
37.3

>  <JCHEM_REFRACTIVITY>  (1) 
54.3714

>  <JCHEM_ROTATABLE_BOND_COUNT>  (1) 
5

>  <JCHEM_RULE_OF_FIVE>  (1) 
1

>  <JCHEM_TRADITIONAL_IUPAC>  (1) 
lipoic acid

>  <JCHEM_VEBER_RULE>  (1) 
1

>  <MOLECULAR_WEIGHT>  (1) 
206.326

>  <PRODUCTS>  (1) 
Strovite One Caplets

>  <SECONDARY_ACCESSION_NUMBERS>  (1) 
NUTR00035

>  <SMILES>  (1) 
OC(=O)CCCC[C@@H]1CCSS1

>  <SYNONYMS>  (1) 
(+)-alpha-Lipoic acid; (R)-(+)-Lipoate; (R)-(+)-lipoic acid; (R)-1,2-Dithiolane-3-pentanoic acid; (R)-1,2-dithiolane-3-valeric acid; (R)-6,8-thioctic acid; (R)-lipoic acid; alpha-Lipoic acid; alpha-Liponsäure; D-thioctic acid; R-(+)-thioctic acid; R-alpha-lipoic acid; Thioctic acid D-form; α-lipoic acid

$$$$
