243
     RDKit          2D

 64 66  0  0  1  0  0  0  0  0999 V2000
    5.9370    2.0625    0.0000 O   0  0  0  0  0  0  0  0  0  0  0  0
    7.3659    2.8876    0.0000 O   0  0  0  0  0  0  0  0  0  0  0  0
    4.5080   -2.0625    0.0000 O   0  0  0  0  0  0  0  0  0  0  0  0
    8.7949    2.0625    0.0000 O   0  0  0  0  0  0  0  0  0  0  0  0
    5.9370    0.4125    0.0000 N   0  0  0  0  0  0  0  0  0  0  0  0
    4.5080   -0.4125    0.0000 N   0  0  0  0  0  0  0  0  0  0  0  0
    3.0791   -2.0625    0.0000 N   0  0  0  0  0  0  0  0  0  0  0  0
    5.9370   -0.4125    0.0000 C   0  0  0  0  0  0  0  0  0  0  0  0
    5.2224    0.8250    0.0000 C   0  0  0  0  0  0  0  0  0  0  0  0
    5.2224   -0.8250    0.0000 C   0  0  0  0  0  0  0  0  0  0  0  0
    4.5080    0.4125    0.0000 C   0  0  0  0  0  0  0  0  0  0  0  0
    6.6515    0.8250    0.0000 C   0  0  0  0  0  0  0  0  0  0  0  0
    3.7935   -0.8250    0.0000 C   0  0  0  0  0  0  0  0  0  0  0  0
    6.6515    1.6500    0.0000 C   0  0  0  0  0  0  0  0  0  0  0  0
    7.3659    2.0625    0.0000 C   0  0  0  0  0  0  0  0  0  0  0  0
    3.7935   -1.6500    0.0000 C   0  0  0  0  0  0  0  0  0  0  0  0
    3.0791   -2.8876    0.0000 C   0  0  0  0  0  0  0  0  0  0  0  0
    8.0804    3.3001    0.0000 C   0  0  0  0  0  0  0  0  0  0  0  0
    3.7935   -3.3001    0.0000 C   0  0  0  0  0  0  0  0  0  0  0  0
    2.3645   -3.3001    0.0000 C   0  0  0  0  0  0  0  0  0  0  0  0
    3.7935   -4.1251    0.0000 C   0  0  0  0  0  0  0  0  0  0  0  0
    2.3645   -4.1251    0.0000 C   0  0  0  0  0  0  0  0  0  0  0  0
    8.7949    2.8876    0.0000 C   0  0  0  0  0  0  0  0  0  0  0  0
    4.5080   -2.8876    0.0000 C   0  0  0  0  0  0  0  0  0  0  0  0
    1.6500   -2.8876    0.0000 C   0  0  0  0  0  0  0  0  0  0  0  0
    8.0804    4.1251    0.0000 C   0  0  0  0  0  0  0  0  0  0  0  0
    3.0791   -4.5376    0.0000 C   0  0  0  0  0  0  0  0  0  0  0  0
    9.5094    3.3001    0.0000 C   0  0  0  0  0  0  0  0  0  0  0  0
    8.7949    4.5376    0.0000 C   0  0  0  0  0  0  0  0  0  0  0  0
    9.5094    4.1251    0.0000 C   0  0  0  0  0  0  0  0  0  0  0  0
    9.5094    1.6500    0.0000 C   0  0  0  0  0  0  0  0  0  0  0  0
    0.0000    0.0000    0.0000 H   0  0  0  0  0  0  0  0  0  0  0  0
    0.0000    0.0000    0.0000 H   0  0  0  0  0  0  0  0  0  0  0  0
    0.0000    0.0000    0.0000 H   0  0  0  0  0  0  0  0  0  0  0  0
    0.0000    0.0000    0.0000 H   0  0  0  0  0  0  0  0  0  0  0  0
    0.0000    0.0000    0.0000 H   0  0  0  0  0  0  0  0  0  0  0  0
    0.0000    0.0000    0.0000 H   0  0  0  0  0  0  0  0  0  0  0  0
    0.0000    0.0000    0.0000 H   0  0  0  0  0  0  0  0  0  0  0  0
    0.0000    0.0000    0.0000 H   0  0  0  0  0  0  0  0  0  0  0  0
    0.0000    0.0000    0.0000 H   0  0  0  0  0  0  0  0  0  0  0  0
    0.0000    0.0000    0.0000 H   0  0  0  0  0  0  0  0  0  0  0  0
    0.0000    0.0000    0.0000 H   0  0  0  0  0  0  0  0  0  0  0  0
    0.0000    0.0000    0.0000 H   0  0  0  0  0  0  0  0  0  0  0  0
    0.0000    0.0000    0.0000 H   0  0  0  0  0  0  0  0  0  0  0  0
    0.0000    0.0000    0.0000 H   0  0  0  0  0  0  0  0  0  0  0  0
    0.0000    0.0000    0.0000 H   0  0  0  0  0  0  0  0  0  0  0  0
    0.0000    0.0000    0.0000 H   0  0  0  0  0  0  0  0  0  0  0  0
    0.0000    0.0000    0.0000 H   0  0  0  0  0  0  0  0  0  0  0  0
    0.0000    0.0000    0.0000 H   0  0  0  0  0  0  0  0  0  0  0  0
    0.0000    0.0000    0.0000 H   0  0  0  0  0  0  0  0  0  0  0  0
    0.0000    0.0000    0.0000 H   0  0  0  0  0  0  0  0  0  0  0  0
    0.0000    0.0000    0.0000 H   0  0  0  0  0  0  0  0  0  0  0  0
    0.0000    0.0000    0.0000 H   0  0  0  0  0  0  0  0  0  0  0  0
    0.0000    0.0000    0.0000 H   0  0  0  0  0  0  0  0  0  0  0  0
    0.0000    0.0000    0.0000 H   0  0  0  0  0  0  0  0  0  0  0  0
    0.0000    0.0000    0.0000 H   0  0  0  0  0  0  0  0  0  0  0  0
    0.0000    0.0000    0.0000 H   0  0  0  0  0  0  0  0  0  0  0  0
    0.0000    0.0000    0.0000 H   0  0  0  0  0  0  0  0  0  0  0  0
    0.0000    0.0000    0.0000 H   0  0  0  0  0  0  0  0  0  0  0  0
    0.0000    0.0000    0.0000 H   0  0  0  0  0  0  0  0  0  0  0  0
    0.0000    0.0000    0.0000 H   0  0  0  0  0  0  0  0  0  0  0  0
    0.0000    0.0000    0.0000 H   0  0  0  0  0  0  0  0  0  0  0  0
    0.0000    0.0000    0.0000 H   0  0  0  0  0  0  0  0  0  0  0  0
    0.0000    0.0000    0.0000 H   0  0  0  0  0  0  0  0  0  0  0  0
  1 14  1  0
  2 15  1  0
  2 18  1  0
  3 16  2  0
  4 23  1  0
  4 31  1  0
  5  8  1  0
  5  9  1  0
  5 12  1  0
  6 10  1  0
  6 11  1  0
  6 13  1  0
  7 16  1  0
  7 17  1  0
  8 10  1  0
  9 11  1  0
 12 14  1  0
 13 16  1  0
 14 15  1  0
 17 19  2  0
 17 20  1  0
 18 23  2  0
 18 26  1  0
 19 21  1  0
 19 24  1  0
 20 22  2  0
 20 25  1  0
 21 27  2  0
 22 27  1  0
 23 28  1  0
 26 29  2  0
 28 30  2  0
 29 30  1  0
  1 32  1  0
  7 33  1  0
  8 34  1  0
  8 35  1  0
  9 36  1  0
  9 37  1  0
 10 38  1  0
 10 39  1  0
 11 40  1  0
 11 41  1  0
 12 42  1  0
 12 43  1  0
 13 44  1  0
 13 45  1  0
 14 46  1  0
 15 47  1  0
 15 48  1  0
 21 49  1  0
 22 50  1  0
 24 51  1  0
 24 52  1  0
 24 53  1  0
 25 54  1  0
 25 55  1  0
 25 56  1  0
 26 57  1  0
 27 58  1  0
 28 59  1  0
 29 60  1  0
 30 61  1  0
 31 62  1  0
 31 63  1  0
 31 64  1  0
M  END
>  <ALOGPS_LOGP>  (1) 
2.08

>  <ALOGPS_LOGS>  (1) 
-3.59

>  <ALOGPS_SOLUBILITY>  (1) 
1.10e-01 g/l

>  <DATABASE_ID>  (1) 
DB00243

>  <DATABASE_NAME>  (1) 
drugbank

>  <DRUGBANK_ID>  (1) 
DB00243

>  <DRUG_GROUPS>  (1) 
approved; investigational

>  <EXACT_MASS>  (1) 
427.247106559

>  <FORMULA>  (1) 
C24H33N3O4

>  <GENERIC_NAME>  (1) 
Ranolazine

>  <INCHI_IDENTIFIER>  (1) 
InChI=1S/C24H33N3O4/c1-18-7-6-8-19(2)24(18)25-23(29)16-27-13-11-26(12-14-27)15-20(28)17-31-22-10-5-4-9-21(22)30-3/h4-10,20,28H,11-17H2,1-3H3,(H,25,29)

>  <INCHI_KEY>  (1) 
XKLMZUWKNUAPSZ-UHFFFAOYSA-N

>  <JCHEM_ACCEPTOR_COUNT>  (1) 
6

>  <JCHEM_AVERAGE_POLARIZABILITY>  (1) 
47.21813650301277

>  <JCHEM_BIOAVAILABILITY>  (1) 
1

>  <JCHEM_DONOR_COUNT>  (1) 
2

>  <JCHEM_FORMAL_CHARGE>  (1) 
0

>  <JCHEM_GHOSE_FILTER>  (1) 
1

>  <JCHEM_IUPAC>  (1) 
N-(2,6-dimethylphenyl)-2-{4-[2-hydroxy-3-(2-methoxyphenoxy)propyl]piperazin-1-yl}acetamide

>  <JCHEM_LOGP>  (1) 
2.832460428666666

>  <JCHEM_MDDR_LIKE_RULE>  (1) 
1

>  <JCHEM_NUMBER_OF_RINGS>  (1) 
3

>  <JCHEM_PHYSIOLOGICAL_CHARGE>  (1) 
1

>  <JCHEM_PKA>  (1) 
14.254038357245086

>  <JCHEM_PKA_STRONGEST_ACIDIC>  (1) 
13.600030535011875

>  <JCHEM_PKA_STRONGEST_BASIC>  (1) 
7.165346303523951

>  <JCHEM_POLAR_SURFACE_AREA>  (1) 
74.27000000000001

>  <JCHEM_REFRACTIVITY>  (1) 
123.46040000000002

>  <JCHEM_ROTATABLE_BOND_COUNT>  (1) 
9

>  <JCHEM_RULE_OF_FIVE>  (1) 
1

>  <JCHEM_TRADITIONAL_IUPAC>  (1) 
ranolazine

>  <JCHEM_VEBER_RULE>  (1) 
0

>  <MOLECULAR_WEIGHT>  (1) 
427.5365

>  <PRODUCTS>  (1) 
Ranexa

>  <SALTS>  (1) 
Ranolazine hydrochloride

>  <SECONDARY_ACCESSION_NUMBERS>  (1) 
APRD01300

>  <SMILES>  (1) 
COC1=CC=CC=C1OCC(O)CN1CCN(CC(=O)NC2=C(C)C=CC=C2C)CC1

$$$$
