573
     RDKit          2D

 32 33  0  0  1  0  0  0  0  0999 V2000
    2.3645   -0.7466    0.0000 O   0  0  0  0  0  0  0  0  0  0  0  0
    4.5080    2.9659    0.0000 O   0  0  0  0  0  0  0  0  0  0  0  0
    5.2224    1.7284    0.0000 O   0  0  0  0  0  0  0  0  0  0  0  0
    3.7935    1.7284    0.0000 C   0  0  0  0  0  0  0  0  0  0  0  0
    3.7935    0.9034    0.0000 C   0  0  0  0  0  0  0  0  0  0  0  0
    3.0791    0.4909    0.0000 C   0  0  0  0  0  0  0  0  0  0  0  0
    3.0791    2.1409    0.0000 C   0  0  0  0  0  0  0  0  0  0  0  0
    4.5080    0.4909    0.0000 C   0  0  0  0  0  0  0  0  0  0  0  0
    3.0791   -0.3341    0.0000 C   0  0  0  0  0  0  0  0  0  0  0  0
    4.5080    2.1409    0.0000 C   0  0  0  0  0  0  0  0  0  0  0  0
    4.5080   -0.3341    0.0000 C   0  0  0  0  0  0  0  0  0  0  0  0
    3.7935   -0.7466    0.0000 C   0  0  0  0  0  0  0  0  0  0  0  0
    2.3645   -1.5717    0.0000 C   0  0  0  0  0  0  0  0  0  0  0  0
    3.0791   -1.9842    0.0000 C   0  0  0  0  0  0  0  0  0  0  0  0
    1.6500   -1.9842    0.0000 C   0  0  0  0  0  0  0  0  0  0  0  0
    3.0791   -2.8092    0.0000 C   0  0  0  0  0  0  0  0  0  0  0  0
    1.6500   -2.8092    0.0000 C   0  0  0  0  0  0  0  0  0  0  0  0
    2.3645   -3.2217    0.0000 C   0  0  0  0  0  0  0  0  0  0  0  0
    0.0000    0.0000    0.0000 H   0  0  0  0  0  0  0  0  0  0  0  0
    0.0000    0.0000    0.0000 H   0  0  0  0  0  0  0  0  0  0  0  0
    0.0000    0.0000    0.0000 H   0  0  0  0  0  0  0  0  0  0  0  0
    0.0000    0.0000    0.0000 H   0  0  0  0  0  0  0  0  0  0  0  0
    0.0000    0.0000    0.0000 H   0  0  0  0  0  0  0  0  0  0  0  0
    0.0000    0.0000    0.0000 H   0  0  0  0  0  0  0  0  0  0  0  0
    0.0000    0.0000    0.0000 H   0  0  0  0  0  0  0  0  0  0  0  0
    0.0000    0.0000    0.0000 H   0  0  0  0  0  0  0  0  0  0  0  0
    0.0000    0.0000    0.0000 H   0  0  0  0  0  0  0  0  0  0  0  0
    0.0000    0.0000    0.0000 H   0  0  0  0  0  0  0  0  0  0  0  0
    0.0000    0.0000    0.0000 H   0  0  0  0  0  0  0  0  0  0  0  0
    0.0000    0.0000    0.0000 H   0  0  0  0  0  0  0  0  0  0  0  0
    0.0000    0.0000    0.0000 H   0  0  0  0  0  0  0  0  0  0  0  0
    0.0000    0.0000    0.0000 H   0  0  0  0  0  0  0  0  0  0  0  0
  1  9  1  0
  1 13  1  0
  2 10  1  0
  3 10  2  0
  4  5  1  0
  4  7  1  0
  4 10  1  0
  5  6  2  0
  5  8  1  0
  6  9  1  0
  8 11  2  0
  9 12  2  0
 11 12  1  0
 13 14  2  0
 13 15  1  0
 14 16  1  0
 15 17  2  0
 16 18  2  0
 17 18  1  0
  2 19  1  0
  4 20  1  0
  6 21  1  0
  7 22  1  0
  7 23  1  0
  7 24  1  0
  8 25  1  0
 11 26  1  0
 12 27  1  0
 14 28  1  0
 15 29  1  0
 16 30  1  0
 17 31  1  0
 18 32  1  0
M  END
>  <ALOGPS_LOGP>  (1) 
3.87

>  <ALOGPS_LOGS>  (1) 
-3.48

>  <ALOGPS_SOLUBILITY>  (1) 
8.11e-02 g/l

>  <DATABASE_ID>  (1) 
DB00573

>  <DATABASE_NAME>  (1) 
drugbank

>  <DRUGBANK_ID>  (1) 
DB00573

>  <DRUG_GROUPS>  (1) 
approved

>  <EXACT_MASS>  (1) 
242.094294314

>  <FORMULA>  (1) 
C15H14O3

>  <GENERIC_NAME>  (1) 
Fenoprofen

>  <INCHI_IDENTIFIER>  (1) 
InChI=1S/C15H14O3/c1-11(15(16)17)12-6-5-9-14(10-12)18-13-7-3-2-4-8-13/h2-11H,1H3,(H,16,17)

>  <INCHI_KEY>  (1) 
RDJGLLICXDHJDY-UHFFFAOYSA-N

>  <INTERNATIONAL_BRANDS>  (1) 
Feilin; Fenopron; Fepron; Kimpron; Nalgésic; Nonsic; Noprofen; Trandor

>  <JCHEM_ACCEPTOR_COUNT>  (1) 
2

>  <JCHEM_AVERAGE_POLARIZABILITY>  (1) 
25.29718180937722

>  <JCHEM_BIOAVAILABILITY>  (1) 
1

>  <JCHEM_DONOR_COUNT>  (1) 
1

>  <JCHEM_FORMAL_CHARGE>  (1) 
0

>  <JCHEM_GHOSE_FILTER>  (1) 
1

>  <JCHEM_IUPAC>  (1) 
2-(3-phenoxyphenyl)propanoic acid

>  <JCHEM_LOGP>  (1) 
3.6542675666666664

>  <JCHEM_MDDR_LIKE_RULE>  (1) 
0

>  <JCHEM_NUMBER_OF_RINGS>  (1) 
2

>  <JCHEM_PHYSIOLOGICAL_CHARGE>  (1) 
-1

>  <JCHEM_PKA_STRONGEST_ACIDIC>  (1) 
3.958974374547462

>  <JCHEM_PKA_STRONGEST_BASIC>  (1) 
-8.709542604441243

>  <JCHEM_POLAR_SURFACE_AREA>  (1) 
46.53

>  <JCHEM_REFRACTIVITY>  (1) 
68.18090000000002

>  <JCHEM_ROTATABLE_BOND_COUNT>  (1) 
4

>  <JCHEM_RULE_OF_FIVE>  (1) 
1

>  <JCHEM_TRADITIONAL_IUPAC>  (1) 
fenoprofen

>  <JCHEM_VEBER_RULE>  (1) 
0

>  <MOLECULAR_WEIGHT>  (1) 
242.2699

>  <PRODUCTS>  (1) 
Fenoprofen; Fenoprofen Calcium; Fenortho; Nalfon; Nalfon Cap 300mg; Nalfon Tab 600mg; ProFeno

>  <SALTS>  (1) 
Fenoprofen calcium; Fenoprofen sodium

>  <SECONDARY_ACCESSION_NUMBERS>  (1) 
APRD00970

>  <SMILES>  (1) 
CC(C(O)=O)C1=CC(OC2=CC=CC=C2)=CC=C1

>  <SYNONYMS>  (1) 
(+/-)-fenoprofen; (+/-)-m-phenoxyhydratropic acid; 2-(3-phenoxyphenyl)propionic acid; 2-(m-phenoxyphenyl)propionic acid; 3-phenoxyhydratropic acid; DL-2-(3-phenoxyphenyl)propionic acid; Fenoprofen; Fénoprofène; Fenoprofeno; Fenoprofenum

$$$$
