287
     RDKit          2D

 70 71  0  0  1  0  0  0  0  0999 V2000
   10.0142    3.6771    0.0000 F   0  0  0  0  0  0  0  0  0  0  0  0
   11.6642    3.6771    0.0000 F   0  0  0  0  0  0  0  0  0  0  0  0
   10.8392    4.5021    0.0000 F   0  0  0  0  0  0  0  0  0  0  0  0
    7.0839   -4.0348    0.0000 O   0  0  0  0  0  0  0  0  0  0  0  0
    9.4334   -2.3278    0.0000 O   0  0  0  0  0  0  0  0  0  0  0  0
    7.9813    0.3771    0.0000 O   0  0  0  0  0  0  0  0  0  0  0  0
    9.4103    1.2021    0.0000 O   0  0  0  0  0  0  0  0  0  0  0  0
    3.0477    0.3058    0.0000 O   0  0  0  0  0  0  0  0  0  0  0  0
    2.6062   -1.0532    0.0000 O   0  0  0  0  0  0  0  0  0  0  0  0
    7.3139   -2.5828    0.0000 C   0  0  0  0  0  0  0  0  0  0  0  0
    7.9813   -2.0979    0.0000 C   0  0  0  0  0  0  0  0  0  0  0  0
    7.5688   -3.3674    0.0000 C   0  0  0  0  0  0  0  0  0  0  0  0
    8.6488   -2.5828    0.0000 C   0  0  0  0  0  0  0  0  0  0  0  0
    8.3938   -3.3674    0.0000 C   0  0  0  0  0  0  0  0  0  0  0  0
    6.5293   -2.3278    0.0000 C   0  0  0  0  0  0  0  0  0  0  0  0
    7.9813   -1.2729    0.0000 C   0  0  0  0  0  0  0  0  0  0  0  0
    5.9162   -2.8799    0.0000 C   0  0  0  0  0  0  0  0  0  0  0  0
    8.6958   -0.8604    0.0000 C   0  0  0  0  0  0  0  0  0  0  0  0
    8.6958   -0.0354    0.0000 C   0  0  0  0  0  0  0  0  0  0  0  0
    5.1315   -2.6250    0.0000 C   0  0  0  0  0  0  0  0  0  0  0  0
    4.9600   -1.8180    0.0000 C   0  0  0  0  0  0  0  0  0  0  0  0
    9.4103    0.3771    0.0000 C   0  0  0  0  0  0  0  0  0  0  0  0
    4.1754   -1.5631    0.0000 C   0  0  0  0  0  0  0  0  0  0  0  0
    4.0039   -0.7560    0.0000 C   0  0  0  0  0  0  0  0  0  0  0  0
   10.1248    1.6146    0.0000 C   0  0  0  0  0  0  0  0  0  0  0  0
    3.2192   -0.5011    0.0000 C   0  0  0  0  0  0  0  0  0  0  0  0
   10.1248    2.4396    0.0000 C   0  0  0  0  0  0  0  0  0  0  0  0
   10.8392    1.2021    0.0000 C   0  0  0  0  0  0  0  0  0  0  0  0
    2.2631    0.5608    0.0000 C   0  0  0  0  0  0  0  0  0  0  0  0
   10.8392    2.8521    0.0000 C   0  0  0  0  0  0  0  0  0  0  0  0
   11.5538    1.6146    0.0000 C   0  0  0  0  0  0  0  0  0  0  0  0
   11.5538    2.4396    0.0000 C   0  0  0  0  0  0  0  0  0  0  0  0
    1.6500    0.0087    0.0000 C   0  0  0  0  0  0  0  0  0  0  0  0
    2.0916    1.3678    0.0000 C   0  0  0  0  0  0  0  0  0  0  0  0
   10.8392    3.6771    0.0000 C   0  0  0  0  0  0  0  0  0  0  0  0
    0.0000    0.0000    0.0000 H   0  0  0  0  0  0  0  0  0  0  0  0
    0.0000    0.0000    0.0000 H   0  0  0  0  0  0  0  0  0  0  0  0
    0.0000    0.0000    0.0000 H   0  0  0  0  0  0  0  0  0  0  0  0
    0.0000    0.0000    0.0000 H   0  0  0  0  0  0  0  0  0  0  0  0
    0.0000    0.0000    0.0000 H   0  0  0  0  0  0  0  0  0  0  0  0
    0.0000    0.0000    0.0000 H   0  0  0  0  0  0  0  0  0  0  0  0
    0.0000    0.0000    0.0000 H   0  0  0  0  0  0  0  0  0  0  0  0
    0.0000    0.0000    0.0000 H   0  0  0  0  0  0  0  0  0  0  0  0
    0.0000    0.0000    0.0000 H   0  0  0  0  0  0  0  0  0  0  0  0
    0.0000    0.0000    0.0000 H   0  0  0  0  0  0  0  0  0  0  0  0
    0.0000    0.0000    0.0000 H   0  0  0  0  0  0  0  0  0  0  0  0
    0.0000    0.0000    0.0000 H   0  0  0  0  0  0  0  0  0  0  0  0
    0.0000    0.0000    0.0000 H   0  0  0  0  0  0  0  0  0  0  0  0
    0.0000    0.0000    0.0000 H   0  0  0  0  0  0  0  0  0  0  0  0
    0.0000    0.0000    0.0000 H   0  0  0  0  0  0  0  0  0  0  0  0
    0.0000    0.0000    0.0000 H   0  0  0  0  0  0  0  0  0  0  0  0
    0.0000    0.0000    0.0000 H   0  0  0  0  0  0  0  0  0  0  0  0
    0.0000    0.0000    0.0000 H   0  0  0  0  0  0  0  0  0  0  0  0
    0.0000    0.0000    0.0000 H   0  0  0  0  0  0  0  0  0  0  0  0
    0.0000    0.0000    0.0000 H   0  0  0  0  0  0  0  0  0  0  0  0
    0.0000    0.0000    0.0000 H   0  0  0  0  0  0  0  0  0  0  0  0
    0.0000    0.0000    0.0000 H   0  0  0  0  0  0  0  0  0  0  0  0
    0.0000    0.0000    0.0000 H   0  0  0  0  0  0  0  0  0  0  0  0
    0.0000    0.0000    0.0000 H   0  0  0  0  0  0  0  0  0  0  0  0
    0.0000    0.0000    0.0000 H   0  0  0  0  0  0  0  0  0  0  0  0
    0.0000    0.0000    0.0000 H   0  0  0  0  0  0  0  0  0  0  0  0
    0.0000    0.0000    0.0000 H   0  0  0  0  0  0  0  0  0  0  0  0
    0.0000    0.0000    0.0000 H   0  0  0  0  0  0  0  0  0  0  0  0
    0.0000    0.0000    0.0000 H   0  0  0  0  0  0  0  0  0  0  0  0
    0.0000    0.0000    0.0000 H   0  0  0  0  0  0  0  0  0  0  0  0
    0.0000    0.0000    0.0000 H   0  0  0  0  0  0  0  0  0  0  0  0
    0.0000    0.0000    0.0000 H   0  0  0  0  0  0  0  0  0  0  0  0
    0.0000    0.0000    0.0000 H   0  0  0  0  0  0  0  0  0  0  0  0
    0.0000    0.0000    0.0000 H   0  0  0  0  0  0  0  0  0  0  0  0
    0.0000    0.0000    0.0000 H   0  0  0  0  0  0  0  0  0  0  0  0
  1 35  1  0
  2 35  1  0
  3 35  1  0
 12  4  1  6
 13  5  1  1
 19  6  1  1
  7 22  1  0
  7 25  1  0
  8 26  1  0
  8 29  1  0
  9 26  2  0
 10 11  1  0
 10 12  1  0
 10 15  1  6
 11 13  1  0
 11 16  1  1
 12 14  1  0
 13 14  1  0
 15 17  1  0
 16 18  2  0
 17 20  2  0
 18 19  1  0
 19 22  1  0
 20 21  1  0
 21 23  1  0
 23 24  1  0
 24 26  1  0
 25 27  2  0
 25 28  1  0
 27 30  1  0
 28 31  2  0
 29 33  1  0
 29 34  1  0
 30 32  2  0
 30 35  1  0
 31 32  1  0
  4 36  1  0
  5 37  1  0
  6 38  1  0
 10 39  1  0
 11 40  1  0
 12 41  1  0
 13 42  1  0
 14 43  1  0
 14 44  1  0
 15 45  1  0
 15 46  1  0
 16 47  1  0
 17 48  1  0
 18 49  1  0
 19 50  1  0
 20 51  1  0
 21 52  1  0
 21 53  1  0
 22 54  1  0
 22 55  1  0
 23 56  1  0
 23 57  1  0
 24 58  1  0
 24 59  1  0
 27 60  1  0
 28 61  1  0
 29 62  1  0
 31 63  1  0
 32 64  1  0
 33 65  1  0
 33 66  1  0
 33 67  1  0
 34 68  1  0
 34 69  1  0
 34 70  1  0
M  END
>  <ALOGPS_LOGP>  (1) 
4.02

>  <ALOGPS_LOGS>  (1) 
-4.82

>  <ALOGPS_SOLUBILITY>  (1) 
7.59e-03 g/l

>  <DATABASE_ID>  (1) 
DB00287

>  <DATABASE_NAME>  (1) 
drugbank

>  <DRUGBANK_ID>  (1) 
DB00287

>  <DRUG_GROUPS>  (1) 
approved

>  <EXACT_MASS>  (1) 
500.238573467

>  <FORMULA>  (1) 
C26H35F3O6

>  <GENERIC_NAME>  (1) 
Travoprost

>  <INCHI_IDENTIFIER>  (1) 
InChI=1S/C26H35F3O6/c1-17(2)35-25(33)11-6-4-3-5-10-21-22(24(32)15-23(21)31)13-12-19(30)16-34-20-9-7-8-18(14-20)26(27,28)29/h3,5,7-9,12-14,17,19,21-24,30-32H,4,6,10-11,15-16H2,1-2H3/b5-3-,13-12+/t19-,21-,22-,23+,24-/m1/s1

>  <INCHI_KEY>  (1) 
MKPLKVHSHYCHOC-AHTXBMBWSA-N

>  <INTERNATIONAL_BRANDS>  (1) 
Travo-Z

>  <JCHEM_ACCEPTOR_COUNT>  (1) 
5

>  <JCHEM_AVERAGE_POLARIZABILITY>  (1) 
51.60825437947595

>  <JCHEM_BIOAVAILABILITY>  (1) 
0

>  <JCHEM_DONOR_COUNT>  (1) 
3

>  <JCHEM_FORMAL_CHARGE>  (1) 
0

>  <JCHEM_GHOSE_FILTER>  (1) 
0

>  <JCHEM_IUPAC>  (1) 
propan-2-yl (5Z)-7-[(1R,2R,3R,5S)-3,5-dihydroxy-2-[(1E,3R)-3-hydroxy-4-[3-(trifluoromethyl)phenoxy]but-1-en-1-yl]cyclopentyl]hept-5-enoate

>  <JCHEM_LOGP>  (1) 
3.839193196666667

>  <JCHEM_MDDR_LIKE_RULE>  (1) 
0

>  <JCHEM_NUMBER_OF_RINGS>  (1) 
2

>  <JCHEM_PHYSIOLOGICAL_CHARGE>  (1) 
0

>  <JCHEM_PKA>  (1) 
14.621222898184115

>  <JCHEM_PKA_STRONGEST_ACIDIC>  (1) 
13.948068465994915

>  <JCHEM_PKA_STRONGEST_BASIC>  (1) 
-2.872004062695197

>  <JCHEM_POLAR_SURFACE_AREA>  (1) 
96.22

>  <JCHEM_REFRACTIVITY>  (1) 
127.8575

>  <JCHEM_ROTATABLE_BOND_COUNT>  (1) 
14

>  <JCHEM_RULE_OF_FIVE>  (1) 
0

>  <JCHEM_TRADITIONAL_IUPAC>  (1) 
travoprost

>  <JCHEM_VEBER_RULE>  (1) 
0

>  <MOLECULAR_WEIGHT>  (1) 
500.5477

>  <PRODUCTS>  (1) 
Apo-travoprost Z; Apo-travoprost-timop; Duotrav Pq; Izba; Mylan-travoprost Z; PMS-travoprost Z; Sandoz Travoprost; Sandoz Travoprost / Timolol Pq; Teva-travoprost Z Ophthalmic Solution; Travatan; Travatan Z; Travoprost Ophthalmic Solution 0.004%

>  <SECONDARY_ACCESSION_NUMBERS>  (1) 
APRD01271

>  <SMILES>  (1) 
CC(C)OC(=O)CCC\C=C/C[C@H]1[C@@H](O)C[C@@H](O)[C@@H]1\C=C\[C@@H](O)COC1=CC=CC(=C1)C(F)(F)F

$$$$
