152951
     RDKit          2D

 71 73  0  0  1  0  0  0  0  0999 V2000
    7.0944    1.1449    0.0000 S   0  0  0  0  0  0  0  0  0  0  0  0
    7.0944   -1.3302    0.0000 O   0  0  0  0  0  0  0  0  0  0  0  0
    6.3799   -3.3927    0.0000 O   0  0  0  0  0  0  0  0  0  0  0  0
    7.0944   -2.1552    0.0000 O   0  0  0  0  0  0  0  0  0  0  0  0
    6.2694    1.1449    0.0000 O   0  0  0  0  0  0  0  0  0  0  0  0
    7.9194    1.1449    0.0000 O   0  0  0  0  0  0  0  0  0  0  0  0
    5.6655   -1.3302    0.0000 N   0  0  0  0  0  0  0  0  0  0  0  0
    7.0944    0.3199    0.0000 N   0  0  0  0  0  0  0  0  0  0  0  0
    8.5464    1.9413    0.0000 N   0  0  0  0  0  0  0  0  0  0  0  0
    3.5220   -0.0926    0.0000 N   0  0  0  0  0  0  0  0  0  0  0  0
    2.0930   -0.0926    0.0000 N   0  0  0  0  0  0  0  0  0  0  0  0
    2.8075    1.1449    0.0000 N   0  0  0  0  0  0  0  0  0  0  0  0
    4.2365   -2.1552    0.0000 C   0  0  0  0  0  0  0  0  0  0  0  0
    4.9509   -2.5677    0.0000 C   0  0  0  0  0  0  0  0  0  0  0  0
    5.6655   -2.1552    0.0000 C   0  0  0  0  0  0  0  0  0  0  0  0
    4.2365   -1.3302    0.0000 C   0  0  0  0  0  0  0  0  0  0  0  0
    4.9509   -0.9177    0.0000 C   0  0  0  0  0  0  0  0  0  0  0  0
    6.3799   -0.0926    0.0000 C   0  0  0  0  0  0  0  0  0  0  0  0
    6.3799   -0.9177    0.0000 C   0  0  0  0  0  0  0  0  0  0  0  0
    3.5220   -2.5677    0.0000 C   0  0  0  0  0  0  0  0  0  0  0  0
    6.3799   -2.5677    0.0000 C   0  0  0  0  0  0  0  0  0  0  0  0
    5.6655    0.3199    0.0000 C   0  0  0  0  0  0  0  0  0  0  0  0
    9.2939    3.2246    0.0000 C   0  0  0  0  0  0  0  0  0  0  0  0
    8.5464    3.6485    0.0000 C   0  0  0  0  0  0  0  0  0  0  0  0
    7.8089    2.3824    0.0000 C   0  0  0  0  0  0  0  0  0  0  0  0
    7.8089    3.2074    0.0000 C   0  0  0  0  0  0  0  0  0  0  0  0
    9.2939    2.3652    0.0000 C   0  0  0  0  0  0  0  0  0  0  0  0
    7.0944    1.9699    0.0000 C   0  0  0  0  0  0  0  0  0  0  0  0
    4.9509   -0.0926    0.0000 C   0  0  0  0  0  0  0  0  0  0  0  0
   10.0068    3.6398    0.0000 C   0  0  0  0  0  0  0  0  0  0  0  0
    7.0944    3.6199    0.0000 C   0  0  0  0  0  0  0  0  0  0  0  0
    6.3799    2.3824    0.0000 C   0  0  0  0  0  0  0  0  0  0  0  0
    4.2365    0.3199    0.0000 C   0  0  0  0  0  0  0  0  0  0  0  0
    6.3799    3.2074    0.0000 C   0  0  0  0  0  0  0  0  0  0  0  0
    2.8075    0.3199    0.0000 C   0  0  0  0  0  0  0  0  0  0  0  0
    0.0000    0.0000    0.0000 H   0  0  0  0  0  0  0  0  0  0  0  0
    0.0000    0.0000    0.0000 H   0  0  0  0  0  0  0  0  0  0  0  0
    0.0000    0.0000    0.0000 H   0  0  0  0  0  0  0  0  0  0  0  0
    0.0000    0.0000    0.0000 H   0  0  0  0  0  0  0  0  0  0  0  0
    0.0000    0.0000    0.0000 H   0  0  0  0  0  0  0  0  0  0  0  0
    0.0000    0.0000    0.0000 H   0  0  0  0  0  0  0  0  0  0  0  0
    0.0000    0.0000    0.0000 H   0  0  0  0  0  0  0  0  0  0  0  0
    0.0000    0.0000    0.0000 H   0  0  0  0  0  0  0  0  0  0  0  0
    0.0000    0.0000    0.0000 H   0  0  0  0  0  0  0  0  0  0  0  0
    0.0000    0.0000    0.0000 H   0  0  0  0  0  0  0  0  0  0  0  0
    0.0000    0.0000    0.0000 H   0  0  0  0  0  0  0  0  0  0  0  0
    0.0000    0.0000    0.0000 H   0  0  0  0  0  0  0  0  0  0  0  0
    0.0000    0.0000    0.0000 H   0  0  0  0  0  0  0  0  0  0  0  0
    0.0000    0.0000    0.0000 H   0  0  0  0  0  0  0  0  0  0  0  0
    0.0000    0.0000    0.0000 H   0  0  0  0  0  0  0  0  0  0  0  0
    0.0000    0.0000    0.0000 H   0  0  0  0  0  0  0  0  0  0  0  0
    0.0000    0.0000    0.0000 H   0  0  0  0  0  0  0  0  0  0  0  0
    0.0000    0.0000    0.0000 H   0  0  0  0  0  0  0  0  0  0  0  0
    0.0000    0.0000    0.0000 H   0  0  0  0  0  0  0  0  0  0  0  0
    0.0000    0.0000    0.0000 H   0  0  0  0  0  0  0  0  0  0  0  0
    0.0000    0.0000    0.0000 H   0  0  0  0  0  0  0  0  0  0  0  0
    0.0000    0.0000    0.0000 H   0  0  0  0  0  0  0  0  0  0  0  0
    0.0000    0.0000    0.0000 H   0  0  0  0  0  0  0  0  0  0  0  0
    0.0000    0.0000    0.0000 H   0  0  0  0  0  0  0  0  0  0  0  0
    0.0000    0.0000    0.0000 H   0  0  0  0  0  0  0  0  0  0  0  0
    0.0000    0.0000    0.0000 H   0  0  0  0  0  0  0  0  0  0  0  0
    0.0000    0.0000    0.0000 H   0  0  0  0  0  0  0  0  0  0  0  0
    0.0000    0.0000    0.0000 H   0  0  0  0  0  0  0  0  0  0  0  0
    0.0000    0.0000    0.0000 H   0  0  0  0  0  0  0  0  0  0  0  0
    0.0000    0.0000    0.0000 H   0  0  0  0  0  0  0  0  0  0  0  0
    0.0000    0.0000    0.0000 H   0  0  0  0  0  0  0  0  0  0  0  0
    0.0000    0.0000    0.0000 H   0  0  0  0  0  0  0  0  0  0  0  0
    0.0000    0.0000    0.0000 H   0  0  0  0  0  0  0  0  0  0  0  0
    0.0000    0.0000    0.0000 H   0  0  0  0  0  0  0  0  0  0  0  0
    0.0000    0.0000    0.0000 H   0  0  0  0  0  0  0  0  0  0  0  0
    0.0000    0.0000    0.0000 H   0  0  0  0  0  0  0  0  0  0  0  0
  1  5  2  0
  1  6  2  0
  1  8  1  0
  1 28  1  0
  2 19  2  0
  3 21  1  0
  4 21  2  0
  7 15  1  0
  7 17  1  0
  7 19  1  0
 18  8  1  1
  9 25  1  0
  9 27  1  0
 10 33  1  0
 10 35  2  3
 11 35  1  0
 12 35  1  0
 13 14  1  0
 13 16  1  0
 13 20  1  6
 14 15  1  0
 15 21  1  6
 16 17  1  0
 18 19  1  0
 18 22  1  0
 22 29  1  0
 23 24  1  0
 23 27  1  0
 23 30  1  6
 24 26  1  0
 25 26  2  0
 25 28  1  0
 26 31  1  0
 28 32  2  0
 29 33  1  0
 31 34  2  0
 32 34  1  0
  3 36  1  0
  8 37  1  0
  9 38  1  0
 11 39  1  0
 11 40  1  0
 12 41  1  0
 12 42  1  0
 13 43  1  0
 14 44  1  0
 14 45  1  0
 15 46  1  0
 16 47  1  0
 16 48  1  0
 17 49  1  0
 17 50  1  0
 18 51  1  0
 20 52  1  0
 20 53  1  0
 20 54  1  0
 22 55  1  0
 22 56  1  0
 23 57  1  0
 24 58  1  0
 24 59  1  0
 27 60  1  0
 27 61  1  0
 29 62  1  0
 29 63  1  0
 30 64  1  0
 30 65  1  0
 30 66  1  0
 31 67  1  0
 32 68  1  0
 33 69  1  0
 33 70  1  0
 34 71  1  0
M  END
>  <ALOGPS_LOGP>  (1) 
0.19

>  <ALOGPS_LOGS>  (1) 
-3.36

>  <ALOGPS_SOLUBILITY>  (1) 
2.21e-01 g/l

>  <DATABASE_ID>  (1) 
DB00278

>  <DATABASE_NAME>  (1) 
drugbank

>  <DRUGBANK_ID>  (1) 
DB00278

>  <DRUG_GROUPS>  (1) 
approved; investigational

>  <EXACT_MASS>  (1) 
508.246788982

>  <FORMULA>  (1) 
C23H36N6O5S

>  <GENERIC_NAME>  (1) 
Argatroban

>  <INCHI_IDENTIFIER>  (1) 
InChI=1S/C23H36N6O5S/c1-14-8-10-29(18(12-14)22(31)32)21(30)17(6-4-9-26-23(24)25)28-35(33,34)19-7-3-5-16-11-15(2)13-27-20(16)19/h3,5,7,14-15,17-18,27-28H,4,6,8-13H2,1-2H3,(H,31,32)(H4,24,25,26)/t14-,15-,17+,18-/m1/s1

>  <INCHI_KEY>  (1) 
KXNPVXPOPUZYGB-XYVMCAHJSA-N

>  <JCHEM_ACCEPTOR_COUNT>  (1) 
9

>  <JCHEM_AVERAGE_POLARIZABILITY>  (1) 
53.89817525305947

>  <JCHEM_BIOAVAILABILITY>  (1) 
1

>  <JCHEM_DONOR_COUNT>  (1) 
5

>  <JCHEM_FORMAL_CHARGE>  (1) 
0

>  <JCHEM_GHOSE_FILTER>  (1) 
0

>  <JCHEM_IUPAC>  (1) 
(2R,4R)-1-[(2S)-5-[(diaminomethylidene)amino]-2-[(3R)-3-methyl-1,2,3,4-tetrahydroquinoline-8-sulfonamido]pentanoyl]-4-methylpiperidine-2-carboxylic acid

>  <JCHEM_LOGP>  (1) 
-0.9697100719266808

>  <JCHEM_MDDR_LIKE_RULE>  (1) 
1

>  <JCHEM_NUMBER_OF_RINGS>  (1) 
3

>  <JCHEM_PHYSIOLOGICAL_CHARGE>  (1) 
0

>  <JCHEM_PKA>  (1) 
10.280986228989137

>  <JCHEM_PKA_STRONGEST_ACIDIC>  (1) 
3.0738177367455877

>  <JCHEM_PKA_STRONGEST_BASIC>  (1) 
10.910838604771872

>  <JCHEM_POLAR_SURFACE_AREA>  (1) 
180.21

>  <JCHEM_REFRACTIVITY>  (1) 
133.53619999999998

>  <JCHEM_ROTATABLE_BOND_COUNT>  (1) 
8

>  <JCHEM_RULE_OF_FIVE>  (1) 
0

>  <JCHEM_TRADITIONAL_IUPAC>  (1) 
argatroban

>  <JCHEM_VEBER_RULE>  (1) 
0

>  <MOLECULAR_WEIGHT>  (1) 
508.634

>  <PRODUCTS>  (1) 
Argatroban

>  <SALTS>  (1) 
Argatroban monohydrate

>  <SECONDARY_ACCESSION_NUMBERS>  (1) 
APRD00105

>  <SMILES>  (1) 
C[C@@H]1CCN([C@H](C1)C(O)=O)C(=O)[C@H](CCCN=C(N)N)NS(=O)(=O)C1=CC=CC2=C1NC[C@H](C)C2

$$$$
