906
     RDKit          2D

 50 52  0  0  1  0  0  0  0  0999 V2000
    6.0232   -0.3227    0.0000 S   0  0  0  0  0  0  0  0  0  0  0  0
    5.8899   -2.8656    0.0000 S   0  0  0  0  0  0  0  0  0  0  0  0
    2.3645    3.3945    0.0000 O   0  0  0  0  0  0  0  0  0  0  0  0
    1.6500    2.1569    0.0000 O   0  0  0  0  0  0  0  0  0  0  0  0
    3.7935    0.9194    0.0000 N   0  0  0  0  0  0  0  0  0  0  0  0
    3.0791    2.1569    0.0000 C   0  0  0  0  0  0  0  0  0  0  0  0
    3.0791    1.3319    0.0000 C   0  0  0  0  0  0  0  0  0  0  0  0
    3.7935    2.5694    0.0000 C   0  0  0  0  0  0  0  0  0  0  0  0
    4.5080    2.1569    0.0000 C   0  0  0  0  0  0  0  0  0  0  0  0
    4.5080    1.3319    0.0000 C   0  0  0  0  0  0  0  0  0  0  0  0
    3.7935    0.0944    0.0000 C   0  0  0  0  0  0  0  0  0  0  0  0
    4.5080   -0.3181    0.0000 C   0  0  0  0  0  0  0  0  0  0  0  0
    2.3645    2.5694    0.0000 C   0  0  0  0  0  0  0  0  0  0  0  0
    4.5080   -1.1431    0.0000 C   0  0  0  0  0  0  0  0  0  0  0  0
    5.2224   -1.5557    0.0000 C   0  0  0  0  0  0  0  0  0  0  0  0
    5.9370   -1.1431    0.0000 C   0  0  0  0  0  0  0  0  0  0  0  0
    5.2224   -2.3807    0.0000 C   0  0  0  0  0  0  0  0  0  0  0  0
    6.6906   -1.4787    0.0000 C   0  0  0  0  0  0  0  0  0  0  0  0
    4.5550   -2.8656    0.0000 C   0  0  0  0  0  0  0  0  0  0  0  0
    7.2427   -0.8656    0.0000 C   0  0  0  0  0  0  0  0  0  0  0  0
    4.8099   -3.6502    0.0000 C   0  0  0  0  0  0  0  0  0  0  0  0
    6.8622   -2.2857    0.0000 C   0  0  0  0  0  0  0  0  0  0  0  0
    3.7704   -2.6106    0.0000 C   0  0  0  0  0  0  0  0  0  0  0  0
    6.8302   -0.1511    0.0000 C   0  0  0  0  0  0  0  0  0  0  0  0
    5.6350   -3.6502    0.0000 C   0  0  0  0  0  0  0  0  0  0  0  0
    0.0000    0.0000    0.0000 H   0  0  0  0  0  0  0  0  0  0  0  0
    0.0000    0.0000    0.0000 H   0  0  0  0  0  0  0  0  0  0  0  0
    0.0000    0.0000    0.0000 H   0  0  0  0  0  0  0  0  0  0  0  0
    0.0000    0.0000    0.0000 H   0  0  0  0  0  0  0  0  0  0  0  0
    0.0000    0.0000    0.0000 H   0  0  0  0  0  0  0  0  0  0  0  0
    0.0000    0.0000    0.0000 H   0  0  0  0  0  0  0  0  0  0  0  0
    0.0000    0.0000    0.0000 H   0  0  0  0  0  0  0  0  0  0  0  0
    0.0000    0.0000    0.0000 H   0  0  0  0  0  0  0  0  0  0  0  0
    0.0000    0.0000    0.0000 H   0  0  0  0  0  0  0  0  0  0  0  0
    0.0000    0.0000    0.0000 H   0  0  0  0  0  0  0  0  0  0  0  0
    0.0000    0.0000    0.0000 H   0  0  0  0  0  0  0  0  0  0  0  0
    0.0000    0.0000    0.0000 H   0  0  0  0  0  0  0  0  0  0  0  0
    0.0000    0.0000    0.0000 H   0  0  0  0  0  0  0  0  0  0  0  0
    0.0000    0.0000    0.0000 H   0  0  0  0  0  0  0  0  0  0  0  0
    0.0000    0.0000    0.0000 H   0  0  0  0  0  0  0  0  0  0  0  0
    0.0000    0.0000    0.0000 H   0  0  0  0  0  0  0  0  0  0  0  0
    0.0000    0.0000    0.0000 H   0  0  0  0  0  0  0  0  0  0  0  0
    0.0000    0.0000    0.0000 H   0  0  0  0  0  0  0  0  0  0  0  0
    0.0000    0.0000    0.0000 H   0  0  0  0  0  0  0  0  0  0  0  0
    0.0000    0.0000    0.0000 H   0  0  0  0  0  0  0  0  0  0  0  0
    0.0000    0.0000    0.0000 H   0  0  0  0  0  0  0  0  0  0  0  0
    0.0000    0.0000    0.0000 H   0  0  0  0  0  0  0  0  0  0  0  0
    0.0000    0.0000    0.0000 H   0  0  0  0  0  0  0  0  0  0  0  0
    0.0000    0.0000    0.0000 H   0  0  0  0  0  0  0  0  0  0  0  0
    0.0000    0.0000    0.0000 H   0  0  0  0  0  0  0  0  0  0  0  0
  1 16  1  0
  1 24  1  0
  2 17  1  0
  2 25  1  0
  3 13  1  0
  4 13  2  0
  5  7  1  0
  5 10  1  0
  5 11  1  0
  6  7  1  0
  6  8  1  0
  6 13  1  6
  8  9  1  0
  9 10  1  0
 11 12  1  0
 12 14  1  0
 14 15  2  3
 15 16  1  0
 15 17  1  0
 16 18  2  0
 17 19  2  0
 18 20  1  0
 18 22  1  0
 19 21  1  0
 19 23  1  0
 20 24  2  0
 21 25  2  0
  3 26  1  0
  6 27  1  0
  7 28  1  0
  7 29  1  0
  8 30  1  0
  8 31  1  0
  9 32  1  0
  9 33  1  0
 10 34  1  0
 10 35  1  0
 11 36  1  0
 11 37  1  0
 12 38  1  0
 12 39  1  0
 14 40  1  0
 20 41  1  0
 21 42  1  0
 22 43  1  0
 22 44  1  0
 22 45  1  0
 23 46  1  0
 23 47  1  0
 23 48  1  0
 24 49  1  0
 25 50  1  0
M  END
>  <ALOGPS_LOGP>  (1) 
4.98

>  <ALOGPS_LOGS>  (1) 
-4.25

>  <ALOGPS_SOLUBILITY>  (1) 
2.11e-02 g/l

>  <DATABASE_ID>  (1) 
DB00906

>  <DATABASE_NAME>  (1) 
drugbank

>  <DRUGBANK_ID>  (1) 
DB00906

>  <DRUG_GROUPS>  (1) 
approved

>  <EXACT_MASS>  (1) 
375.132670429

>  <FORMULA>  (1) 
C20H25NO2S2

>  <GENERIC_NAME>  (1) 
Tiagabine

>  <INCHI_IDENTIFIER>  (1) 
InChI=1S/C20H25NO2S2/c1-14-7-11-24-18(14)17(19-15(2)8-12-25-19)6-4-10-21-9-3-5-16(13-21)20(22)23/h6-8,11-12,16H,3-5,9-10,13H2,1-2H3,(H,22,23)/t16-/m1/s1

>  <INCHI_KEY>  (1) 
PBJUNZJWGZTSKL-MRXNPFEDSA-N

>  <JCHEM_ACCEPTOR_COUNT>  (1) 
3

>  <JCHEM_AVERAGE_POLARIZABILITY>  (1) 
41.69658064063397

>  <JCHEM_BIOAVAILABILITY>  (1) 
1

>  <JCHEM_DONOR_COUNT>  (1) 
1

>  <JCHEM_FORMAL_CHARGE>  (1) 
0

>  <JCHEM_GHOSE_FILTER>  (1) 
1

>  <JCHEM_IUPAC>  (1) 
(3R)-1-[4,4-bis(3-methylthiophen-2-yl)but-3-en-1-yl]piperidine-3-carboxylic acid

>  <JCHEM_LOGP>  (1) 
2.6014484715409854

>  <JCHEM_MDDR_LIKE_RULE>  (1) 
1

>  <JCHEM_NUMBER_OF_RINGS>  (1) 
3

>  <JCHEM_PHYSIOLOGICAL_CHARGE>  (1) 
0

>  <JCHEM_PKA_STRONGEST_ACIDIC>  (1) 
4.143309589728766

>  <JCHEM_PKA_STRONGEST_BASIC>  (1) 
9.256939516244088

>  <JCHEM_POLAR_SURFACE_AREA>  (1) 
40.54

>  <JCHEM_REFRACTIVITY>  (1) 
115.31710000000002

>  <JCHEM_ROTATABLE_BOND_COUNT>  (1) 
6

>  <JCHEM_RULE_OF_FIVE>  (1) 
1

>  <JCHEM_TRADITIONAL_IUPAC>  (1) 
tiagabine

>  <JCHEM_VEBER_RULE>  (1) 
0

>  <MOLECULAR_WEIGHT>  (1) 
375.548

>  <PRODUCTS>  (1) 
Gabitril; Tiagabine Hydrochloride

>  <SALTS>  (1) 
Tiagabine hydrochloride

>  <SECONDARY_ACCESSION_NUMBERS>  (1) 
APRD00344

>  <SMILES>  (1) 
CC1=C(SC=C1)C(=CCCN1CCC[C@H](C1)C(O)=O)C1=C(C)C=CS1

>  <SYNONYMS>  (1) 
Tiagabina; Tiagabinum

$$$$
