479
     RDKit          2D

 83 85  0  0  1  0  0  0  0  0999 V2000
    5.6655    1.5226    0.0000 O   0  0  0  0  0  0  0  0  0  0  0  0
    7.0944   -0.9525    0.0000 O   0  0  0  0  0  0  0  0  0  0  0  0
    7.0944    0.6976    0.0000 O   0  0  0  0  0  0  0  0  0  0  0  0
    7.0944    1.5226    0.0000 O   0  0  0  0  0  0  0  0  0  0  0  0
    7.0945   -2.3814    0.0000 O   0  0  0  0  0  0  0  0  0  0  0  0
    5.6655    3.1726    0.0000 O   0  0  0  0  0  0  0  0  0  0  0  0
    8.7444   -0.9525    0.0000 O   0  0  0  0  0  0  0  0  0  0  0  0
    8.5234    3.1726    0.0000 O   0  0  0  0  0  0  0  0  0  0  0  0
    9.5695   -2.3814    0.0000 O   0  0  0  0  0  0  0  0  0  0  0  0
    8.7445   -3.8103    0.0000 O   0  0  0  0  0  0  0  0  0  0  0  0
    2.8075    0.6976    0.0000 O   0  0  0  0  0  0  0  0  0  0  0  0
    8.5234    0.6976    0.0000 O   0  0  0  0  0  0  0  0  0  0  0  0
    4.2365   -0.9525    0.0000 O   0  0  0  0  0  0  0  0  0  0  0  0
    4.2365    0.6976    0.0000 N   0  0  0  0  0  0  0  0  0  0  0  0
    5.6655   -1.7775    0.0000 N   0  0  0  0  0  0  0  0  0  0  0  0
    7.0944    3.9976    0.0000 N   0  0  0  0  0  0  0  0  0  0  0  0
    6.2694   -3.8104    0.0000 N   0  0  0  0  0  0  0  0  0  0  0  0
    2.0930   -2.1900    0.0000 N   0  0  0  0  0  0  0  0  0  0  0  0
    5.6655    0.6976    0.0000 C   0  0  0  0  0  0  0  0  0  0  0  0
    6.3799   -0.5400    0.0000 C   0  0  0  0  0  0  0  0  0  0  0  0
    4.9509    0.2850    0.0000 C   0  0  0  0  0  0  0  0  0  0  0  0
    6.3799    0.2850    0.0000 C   0  0  0  0  0  0  0  0  0  0  0  0
    5.6655   -0.9525    0.0000 C   0  0  0  0  0  0  0  0  0  0  0  0
    4.9509   -0.5400    0.0000 C   0  0  0  0  0  0  0  0  0  0  0  0
    6.3799    1.9351    0.0000 C   0  0  0  0  0  0  0  0  0  0  0  0
    7.5070   -1.6669    0.0000 C   0  0  0  0  0  0  0  0  0  0  0  0
    6.3799    2.7601    0.0000 C   0  0  0  0  0  0  0  0  0  0  0  0
    7.0944    3.1726    0.0000 C   0  0  0  0  0  0  0  0  0  0  0  0
    8.3319   -1.6669    0.0000 C   0  0  0  0  0  0  0  0  0  0  0  0
    7.8089    2.7601    0.0000 C   0  0  0  0  0  0  0  0  0  0  0  0
    8.7444   -2.3814    0.0000 C   0  0  0  0  0  0  0  0  0  0  0  0
    7.8089    1.9351    0.0000 C   0  0  0  0  0  0  0  0  0  0  0  0
    8.3320   -3.0959    0.0000 C   0  0  0  0  0  0  0  0  0  0  0  0
    7.5070   -3.0959    0.0000 C   0  0  0  0  0  0  0  0  0  0  0  0
    3.5220    0.2850    0.0000 C   0  0  0  0  0  0  0  0  0  0  0  0
    8.5234    1.5226    0.0000 C   0  0  0  0  0  0  0  0  0  0  0  0
    7.0945   -3.8104    0.0000 C   0  0  0  0  0  0  0  0  0  0  0  0
    3.5220   -0.5400    0.0000 C   0  0  0  0  0  0  0  0  0  0  0  0
    2.8075   -0.9525    0.0000 C   0  0  0  0  0  0  0  0  0  0  0  0
    2.8075   -1.7775    0.0000 C   0  0  0  0  0  0  0  0  0  0  0  0
    0.0000    0.0000    0.0000 H   0  0  0  0  0  0  0  0  0  0  0  0
    0.0000    0.0000    0.0000 H   0  0  0  0  0  0  0  0  0  0  0  0
    0.0000    0.0000    0.0000 H   0  0  0  0  0  0  0  0  0  0  0  0
    0.0000    0.0000    0.0000 H   0  0  0  0  0  0  0  0  0  0  0  0
    0.0000    0.0000    0.0000 H   0  0  0  0  0  0  0  0  0  0  0  0
    0.0000    0.0000    0.0000 H   0  0  0  0  0  0  0  0  0  0  0  0
    0.0000    0.0000    0.0000 H   0  0  0  0  0  0  0  0  0  0  0  0
    0.0000    0.0000    0.0000 H   0  0  0  0  0  0  0  0  0  0  0  0
    0.0000    0.0000    0.0000 H   0  0  0  0  0  0  0  0  0  0  0  0
    0.0000    0.0000    0.0000 H   0  0  0  0  0  0  0  0  0  0  0  0
    0.0000    0.0000    0.0000 H   0  0  0  0  0  0  0  0  0  0  0  0
    0.0000    0.0000    0.0000 H   0  0  0  0  0  0  0  0  0  0  0  0
    0.0000    0.0000    0.0000 H   0  0  0  0  0  0  0  0  0  0  0  0
    0.0000    0.0000    0.0000 H   0  0  0  0  0  0  0  0  0  0  0  0
    0.0000    0.0000    0.0000 H   0  0  0  0  0  0  0  0  0  0  0  0
    0.0000    0.0000    0.0000 H   0  0  0  0  0  0  0  0  0  0  0  0
    0.0000    0.0000    0.0000 H   0  0  0  0  0  0  0  0  0  0  0  0
    0.0000    0.0000    0.0000 H   0  0  0  0  0  0  0  0  0  0  0  0
    0.0000    0.0000    0.0000 H   0  0  0  0  0  0  0  0  0  0  0  0
    0.0000    0.0000    0.0000 H   0  0  0  0  0  0  0  0  0  0  0  0
    0.0000    0.0000    0.0000 H   0  0  0  0  0  0  0  0  0  0  0  0
    0.0000    0.0000    0.0000 H   0  0  0  0  0  0  0  0  0  0  0  0
    0.0000    0.0000    0.0000 H   0  0  0  0  0  0  0  0  0  0  0  0
    0.0000    0.0000    0.0000 H   0  0  0  0  0  0  0  0  0  0  0  0
    0.0000    0.0000    0.0000 H   0  0  0  0  0  0  0  0  0  0  0  0
    0.0000    0.0000    0.0000 H   0  0  0  0  0  0  0  0  0  0  0  0
    0.0000    0.0000    0.0000 H   0  0  0  0  0  0  0  0  0  0  0  0
    0.0000    0.0000    0.0000 H   0  0  0  0  0  0  0  0  0  0  0  0
    0.0000    0.0000    0.0000 H   0  0  0  0  0  0  0  0  0  0  0  0
    0.0000    0.0000    0.0000 H   0  0  0  0  0  0  0  0  0  0  0  0
    0.0000    0.0000    0.0000 H   0  0  0  0  0  0  0  0  0  0  0  0
    0.0000    0.0000    0.0000 H   0  0  0  0  0  0  0  0  0  0  0  0
    0.0000    0.0000    0.0000 H   0  0  0  0  0  0  0  0  0  0  0  0
    0.0000    0.0000    0.0000 H   0  0  0  0  0  0  0  0  0  0  0  0
    0.0000    0.0000    0.0000 H   0  0  0  0  0  0  0  0  0  0  0  0
    0.0000    0.0000    0.0000 H   0  0  0  0  0  0  0  0  0  0  0  0
    0.0000    0.0000    0.0000 H   0  0  0  0  0  0  0  0  0  0  0  0
    0.0000    0.0000    0.0000 H   0  0  0  0  0  0  0  0  0  0  0  0
    0.0000    0.0000    0.0000 H   0  0  0  0  0  0  0  0  0  0  0  0
    0.0000    0.0000    0.0000 H   0  0  0  0  0  0  0  0  0  0  0  0
    0.0000    0.0000    0.0000 H   0  0  0  0  0  0  0  0  0  0  0  0
    0.0000    0.0000    0.0000 H   0  0  0  0  0  0  0  0  0  0  0  0
    0.0000    0.0000    0.0000 H   0  0  0  0  0  0  0  0  0  0  0  0
 19  1  1  6
 25  1  1  6
 20  2  1  1
 26  2  1  6
 22  3  1  6
  4 25  1  0
  4 32  1  0
  5 26  1  0
  5 34  1  0
 27  6  1  6
 29  7  1  6
 30  8  1  1
 31  9  1  6
 33 10  1  1
 11 35  2  0
 12 36  1  0
 38 13  1  6
 21 14  1  1
 14 35  1  0
 23 15  1  1
 28 16  1  1
 17 37  1  0
 18 40  1  0
 19 21  1  0
 19 22  1  0
 20 22  1  0
 20 23  1  0
 21 24  1  0
 23 24  1  0
 25 27  1  0
 26 29  1  0
 27 28  1  0
 28 30  1  0
 29 31  1  0
 30 32  1  0
 31 33  1  0
 32 36  1  6
 33 34  1  0
 34 37  1  1
 35 38  1  0
 38 39  1  0
 39 40  1  0
  3 41  1  0
  6 42  1  0
  7 43  1  0
  8 44  1  0
  9 45  1  0
 10 46  1  0
 12 47  1  0
 13 48  1  0
 14 49  1  0
 15 50  1  0
 15 51  1  0
 16 52  1  0
 16 53  1  0
 17 54  1  0
 17 55  1  0
 18 56  1  0
 18 57  1  0
 19 58  1  0
 20 59  1  0
 21 60  1  0
 22 61  1  0
 23 62  1  0
 24 63  1  0
 24 64  1  0
 25 65  1  0
 26 66  1  0
 27 67  1  0
 28 68  1  0
 29 69  1  0
 30 70  1  0
 31 71  1  0
 32 72  1  0
 33 73  1  0
 34 74  1  0
 36 75  1  0
 36 76  1  0
 37 77  1  0
 37 78  1  0
 38 79  1  0
 39 80  1  0
 39 81  1  0
 40 82  1  0
 40 83  1  0
M  END
>  <ALOGPS_LOGP>  (1) 
-3.22

>  <ALOGPS_LOGS>  (1) 
-1.07

>  <ALOGPS_SOLUBILITY>  (1) 
4.97e+01 g/l

>  <DATABASE_ID>  (1) 
DB00479

>  <DATABASE_NAME>  (1) 
drugbank

>  <DRUGBANK_ID>  (1) 
DB00479

>  <DRUG_GROUPS>  (1) 
approved; vet_approved

>  <EXACT_MASS>  (1) 
585.285736487

>  <FORMULA>  (1) 
C22H43N5O13

>  <GENERIC_NAME>  (1) 
Amikacin

>  <INCHI_IDENTIFIER>  (1) 
InChI=1S/C22H43N5O13/c23-2-1-8(29)20(36)27-7-3-6(25)18(39-22-16(34)15(33)13(31)9(4-24)37-22)17(35)19(7)40-21-14(32)11(26)12(30)10(5-28)38-21/h6-19,21-22,28-35H,1-5,23-26H2,(H,27,36)/t6-,7+,8-,9+,10+,11-,12+,13+,14+,15-,16+,17-,18+,19-,21+,22+/m0/s1

>  <INCHI_KEY>  (1) 
LKCWBDHBTVXHDL-RMDFUYIESA-N

>  <INTERNATIONAL_BRANDS>  (1) 
Amexel; Amukin; Biklin; Erkacin; Farcyclin; Flexelite; Kamin; Novamin; Selaxa; Selemycin; Sikacin; Tipkin; Tybikin; Ukaject; Unikin; Uzix; Xylanal

>  <JCHEM_ACCEPTOR_COUNT>  (1) 
17

>  <JCHEM_AVERAGE_POLARIZABILITY>  (1) 
58.19838164009131

>  <JCHEM_BIOAVAILABILITY>  (1) 
0

>  <JCHEM_DONOR_COUNT>  (1) 
13

>  <JCHEM_FORMAL_CHARGE>  (1) 
0

>  <JCHEM_GHOSE_FILTER>  (1) 
0

>  <JCHEM_IUPAC>  (1) 
(2S)-4-amino-N-[(1R,2S,3S,4R,5S)-5-amino-2-{[(2S,3R,4S,5S,6R)-4-amino-3,5-dihydroxy-6-(hydroxymethyl)oxan-2-yl]oxy}-4-{[(2R,3R,4S,5S,6R)-6-(aminomethyl)-3,4,5-trihydroxyoxan-2-yl]oxy}-3-hydroxycyclohexyl]-2-hydroxybutanamide

>  <JCHEM_LOGP>  (1) 
-8.584382674

>  <JCHEM_MDDR_LIKE_RULE>  (1) 
1

>  <JCHEM_NUMBER_OF_RINGS>  (1) 
3

>  <JCHEM_PHYSIOLOGICAL_CHARGE>  (1) 
4

>  <JCHEM_PKA>  (1) 
12.70598939175315

>  <JCHEM_PKA_STRONGEST_ACIDIC>  (1) 
12.104233562206012

>  <JCHEM_PKA_STRONGEST_BASIC>  (1) 
9.794402745081491

>  <JCHEM_POLAR_SURFACE_AREA>  (1) 
331.93999999999994

>  <JCHEM_REFRACTIVITY>  (1) 
129.84099999999992

>  <JCHEM_ROTATABLE_BOND_COUNT>  (1) 
10

>  <JCHEM_RULE_OF_FIVE>  (1) 
0

>  <JCHEM_TRADITIONAL_IUPAC>  (1) 
amikacin

>  <JCHEM_VEBER_RULE>  (1) 
0

>  <MOLECULAR_WEIGHT>  (1) 
585.6025

>  <PRODUCTS>  (1) 
Amikacin Sulfate; Amikacin Sulfate Injection USP; Amikin

>  <SALTS>  (1) 
Amikacin Sulfate

>  <SECONDARY_ACCESSION_NUMBERS>  (1) 
APRD00550

>  <SMILES>  (1) 
NCC[C@H](O)C(=O)N[C@@H]1C[C@H](N)[C@@H](O[C@H]2O[C@H](CN)[C@@H](O)[C@H](O)[C@H]2O)[C@H](O)[C@H]1O[C@H]1O[C@H](CO)[C@@H](O)[C@H](N)[C@H]1O

>  <SYNONYMS>  (1) 
Amikacin; Amikacina; Amikacine; Amikacinum

$$$$
