177
     RDKit          2D

 61 63  0  0  1  0  0  0  0  0999 V2000
    2.0930    1.2209    0.0000 O   0  0  0  0  0  0  0  0  0  0  0  0
    4.9509   -0.4292    0.0000 O   0  0  0  0  0  0  0  0  0  0  0  0
    2.8075   -0.0167    0.0000 O   0  0  0  0  0  0  0  0  0  0  0  0
    4.2365    0.8084    0.0000 N   0  0  0  0  0  0  0  0  0  0  0  0
    7.8559    1.2933    0.0000 N   0  0  0  0  0  0  0  0  0  0  0  0
    9.1909    1.2933    0.0000 N   0  0  0  0  0  0  0  0  0  0  0  0
    8.1109    2.0779    0.0000 N   0  0  0  0  0  0  0  0  0  0  0  0
    8.9359    2.0779    0.0000 N   0  0  0  0  0  0  0  0  0  0  0  0
    3.5220    1.2209    0.0000 C   0  0  0  0  0  0  0  0  0  0  0  0
    3.5220    2.0459    0.0000 C   0  0  0  0  0  0  0  0  0  0  0  0
    4.9509    1.2209    0.0000 C   0  0  0  0  0  0  0  0  0  0  0  0
    4.2365   -0.0167    0.0000 C   0  0  0  0  0  0  0  0  0  0  0  0
    2.8075    2.4584    0.0000 C   0  0  0  0  0  0  0  0  0  0  0  0
    4.2365    2.4584    0.0000 C   0  0  0  0  0  0  0  0  0  0  0  0
    3.5220   -0.4292    0.0000 C   0  0  0  0  0  0  0  0  0  0  0  0
    2.8075    0.8084    0.0000 C   0  0  0  0  0  0  0  0  0  0  0  0
    5.6655    0.8084    0.0000 C   0  0  0  0  0  0  0  0  0  0  0  0
    3.5220   -1.2542    0.0000 C   0  0  0  0  0  0  0  0  0  0  0  0
    2.8075   -1.6667    0.0000 C   0  0  0  0  0  0  0  0  0  0  0  0
    6.3799    1.2209    0.0000 C   0  0  0  0  0  0  0  0  0  0  0  0
    5.6655   -0.0167    0.0000 C   0  0  0  0  0  0  0  0  0  0  0  0
    7.0944   -0.0167    0.0000 C   0  0  0  0  0  0  0  0  0  0  0  0
    7.0944    0.8084    0.0000 C   0  0  0  0  0  0  0  0  0  0  0  0
    6.3799   -0.4292    0.0000 C   0  0  0  0  0  0  0  0  0  0  0  0
    2.8075   -2.4917    0.0000 C   0  0  0  0  0  0  0  0  0  0  0  0
    7.8089   -0.4292    0.0000 C   0  0  0  0  0  0  0  0  0  0  0  0
    8.5234   -0.0167    0.0000 C   0  0  0  0  0  0  0  0  0  0  0  0
    7.8089   -1.2542    0.0000 C   0  0  0  0  0  0  0  0  0  0  0  0
    9.2379   -0.4292    0.0000 C   0  0  0  0  0  0  0  0  0  0  0  0
    8.5234   -1.6667    0.0000 C   0  0  0  0  0  0  0  0  0  0  0  0
    8.5234    0.8084    0.0000 C   0  0  0  0  0  0  0  0  0  0  0  0
    9.2379   -1.2542    0.0000 C   0  0  0  0  0  0  0  0  0  0  0  0
    0.0000    0.0000    0.0000 H   0  0  0  0  0  0  0  0  0  0  0  0
    0.0000    0.0000    0.0000 H   0  0  0  0  0  0  0  0  0  0  0  0
    0.0000    0.0000    0.0000 H   0  0  0  0  0  0  0  0  0  0  0  0
    0.0000    0.0000    0.0000 H   0  0  0  0  0  0  0  0  0  0  0  0
    0.0000    0.0000    0.0000 H   0  0  0  0  0  0  0  0  0  0  0  0
    0.0000    0.0000    0.0000 H   0  0  0  0  0  0  0  0  0  0  0  0
    0.0000    0.0000    0.0000 H   0  0  0  0  0  0  0  0  0  0  0  0
    0.0000    0.0000    0.0000 H   0  0  0  0  0  0  0  0  0  0  0  0
    0.0000    0.0000    0.0000 H   0  0  0  0  0  0  0  0  0  0  0  0
    0.0000    0.0000    0.0000 H   0  0  0  0  0  0  0  0  0  0  0  0
    0.0000    0.0000    0.0000 H   0  0  0  0  0  0  0  0  0  0  0  0
    0.0000    0.0000    0.0000 H   0  0  0  0  0  0  0  0  0  0  0  0
    0.0000    0.0000    0.0000 H   0  0  0  0  0  0  0  0  0  0  0  0
    0.0000    0.0000    0.0000 H   0  0  0  0  0  0  0  0  0  0  0  0
    0.0000    0.0000    0.0000 H   0  0  0  0  0  0  0  0  0  0  0  0
    0.0000    0.0000    0.0000 H   0  0  0  0  0  0  0  0  0  0  0  0
    0.0000    0.0000    0.0000 H   0  0  0  0  0  0  0  0  0  0  0  0
    0.0000    0.0000    0.0000 H   0  0  0  0  0  0  0  0  0  0  0  0
    0.0000    0.0000    0.0000 H   0  0  0  0  0  0  0  0  0  0  0  0
    0.0000    0.0000    0.0000 H   0  0  0  0  0  0  0  0  0  0  0  0
    0.0000    0.0000    0.0000 H   0  0  0  0  0  0  0  0  0  0  0  0
    0.0000    0.0000    0.0000 H   0  0  0  0  0  0  0  0  0  0  0  0
    0.0000    0.0000    0.0000 H   0  0  0  0  0  0  0  0  0  0  0  0
    0.0000    0.0000    0.0000 H   0  0  0  0  0  0  0  0  0  0  0  0
    0.0000    0.0000    0.0000 H   0  0  0  0  0  0  0  0  0  0  0  0
    0.0000    0.0000    0.0000 H   0  0  0  0  0  0  0  0  0  0  0  0
    0.0000    0.0000    0.0000 H   0  0  0  0  0  0  0  0  0  0  0  0
    0.0000    0.0000    0.0000 H   0  0  0  0  0  0  0  0  0  0  0  0
    0.0000    0.0000    0.0000 H   0  0  0  0  0  0  0  0  0  0  0  0
  1 16  1  0
  2 12  2  0
  3 16  2  0
  9  4  1  1
  4 11  1  0
  4 12  1  0
  5  7  1  0
  5 31  2  0
  6  8  2  0
  6 31  1  0
  7  8  1  0
  9 10  1  0
  9 16  1  0
 10 13  1  0
 10 14  1  0
 11 17  1  0
 12 15  1  0
 15 18  1  0
 17 20  2  0
 17 21  1  0
 18 19  1  0
 19 25  1  0
 20 23  1  0
 21 24  2  0
 22 23  2  0
 22 24  1  0
 22 26  1  0
 26 27  1  0
 26 28  2  0
 27 29  2  0
 27 31  1  0
 28 30  1  0
 29 32  1  0
 30 32  2  0
  1 33  1  0
  7 34  1  0
  9 35  1  0
 10 36  1  0
 11 37  1  0
 11 38  1  0
 13 39  1  0
 13 40  1  0
 13 41  1  0
 14 42  1  0
 14 43  1  0
 14 44  1  0
 15 45  1  0
 15 46  1  0
 18 47  1  0
 18 48  1  0
 19 49  1  0
 19 50  1  0
 20 51  1  0
 21 52  1  0
 23 53  1  0
 24 54  1  0
 25 55  1  0
 25 56  1  0
 25 57  1  0
 28 58  1  0
 29 59  1  0
 30 60  1  0
 32 61  1  0
M  END
>  <ALOGPS_LOGP>  (1) 
3.68

>  <ALOGPS_LOGS>  (1) 
-4.27

>  <ALOGPS_SOLUBILITY>  (1) 
2.34e-02 g/l

>  <DATABASE_ID>  (1) 
DB00177

>  <DATABASE_NAME>  (1) 
drugbank

>  <DRUGBANK_ID>  (1) 
DB00177

>  <DRUG_GROUPS>  (1) 
approved; investigational

>  <EXACT_MASS>  (1) 
435.227039819

>  <FORMULA>  (1) 
C24H29N5O3

>  <GENERIC_NAME>  (1) 
Valsartan

>  <INCHI_IDENTIFIER>  (1) 
InChI=1S/C24H29N5O3/c1-4-5-10-21(30)29(22(16(2)3)24(31)32)15-17-11-13-18(14-12-17)19-8-6-7-9-20(19)23-25-27-28-26-23/h6-9,11-14,16,22H,4-5,10,15H2,1-3H3,(H,31,32)(H,25,26,27,28)/t22-/m0/s1

>  <INCHI_KEY>  (1) 
ACWBQPMHZXGDFX-QFIPXVFZSA-N

>  <INTERNATIONAL_BRANDS>  (1) 
Diovan

>  <JCHEM_ACCEPTOR_COUNT>  (1) 
6

>  <JCHEM_AVERAGE_POLARIZABILITY>  (1) 
47.27314752925239

>  <JCHEM_BIOAVAILABILITY>  (1) 
1

>  <JCHEM_DONOR_COUNT>  (1) 
2

>  <JCHEM_FORMAL_CHARGE>  (1) 
0

>  <JCHEM_GHOSE_FILTER>  (1) 
0

>  <JCHEM_IUPAC>  (1) 
(2S)-3-methyl-2-[N-({4-[2-(2H-1,2,3,4-tetrazol-5-yl)phenyl]phenyl}methyl)pentanamido]butanoic acid

>  <JCHEM_LOGP>  (1) 
5.2693789780000015

>  <JCHEM_MDDR_LIKE_RULE>  (1) 
1

>  <JCHEM_NUMBER_OF_RINGS>  (1) 
3

>  <JCHEM_PHYSIOLOGICAL_CHARGE>  (1) 
-1

>  <JCHEM_PKA>  (1) 
7.399818067465363

>  <JCHEM_PKA_STRONGEST_ACIDIC>  (1) 
4.366355827724827

>  <JCHEM_PKA_STRONGEST_BASIC>  (1) 
-0.11251135131002898

>  <JCHEM_POLAR_SURFACE_AREA>  (1) 
112.07000000000001

>  <JCHEM_REFRACTIVITY>  (1) 
134.7733

>  <JCHEM_ROTATABLE_BOND_COUNT>  (1) 
10

>  <JCHEM_RULE_OF_FIVE>  (1) 
0

>  <JCHEM_TRADITIONAL_IUPAC>  (1) 
valsartan

>  <JCHEM_VEBER_RULE>  (1) 
0

>  <MOLECULAR_WEIGHT>  (1) 
435.5188

>  <PRODUCTS>  (1) 
AMLODIPINE and VALSARTAN; Act Valsartan; Amlodipine and Valsartan; Amlodipine and valsartan; Amlodipine, Valsartan and Hydrochlorothiazide; Amlodipine, Valsartan, Hydrochlorothiazide; Amlodipine, Valsartan, and Hydrochlorothiazide; Amlodipine-valsartan Mylan; Apo-valsartan; Apo-valsartan/hctz; Auro-valsartan; Auro-valsartan Hct; Ava-valsartan; Ava-valsartan Hct; Byvalson; Dafiro; Diovan; Diovan 160mg; Diovan 160mg Tablets; Diovan 80mg; Diovan 80mg Tablets; Diovan HCT; Diovan-hct; Dom-valsartan; Entresto; Exforge; Exforge HCT; Exforge Hct; Imprida; Imprida Hct; Mylan-valsartan; Mylan-valsartan Hctz; Novo-valsartan; Novo-valsartan/hctz; PMS-valsartan; PMS-valsartan-hctz; Q-valsartan; Q-valsartan Hctz; Ran-valsartan; Riva-valsartan; Sandoz Valsartan; Sandoz Valsartan Hct; Teva-valsartan; Teva-valsartan/hctz; Valsartan; Valsartan HCTZ; Valsartan Hct; Valsartan and Hydrochlorothiazide; Valsartan and hydrochlorothiazide; Valsartan-hctz

>  <SECONDARY_ACCESSION_NUMBERS>  (1) 
APRD00133

>  <SMILES>  (1) 
CCCCC(=O)N(CC1=CC=C(C=C1)C1=CC=CC=C1C1=NNN=N1)[C@@H](C(C)C)C(O)=O

>  <SYNONYMS>  (1) 
(S)-N-Valeryl-N-{[2'-(1H-tetrazol-5-yl)biphenyl-4-yl]-methyl}-valine; N-(P-(O-1H-Tetrazol-5-ylphenyl)benzyl)-N-valeryl-L-valine; N-pentanoyl-N-{[2'-(1H-tetrazol-5-yl)biphenyl-4-yl]methyl}-L-valine

$$$$
