304
     RDKit          2D

 53 56  0  0  1  0  0  0  0  0999 V2000
    5.9104    1.5551    0.0000 O   0  0  0  0  0  0  0  0  0  0  0  0
    5.3833    0.5186    0.0000 C   0  0  0  0  0  0  0  0  0  0  0  0
    5.3833   -0.3064    0.0000 C   0  0  0  0  0  0  0  0  0  0  0  0
    4.6689   -0.7189    0.0000 C   0  0  0  0  0  0  0  0  0  0  0  0
    3.9544   -0.3064    0.0000 C   0  0  0  0  0  0  0  0  0  0  0  0
    6.1640    0.7700    0.0000 C   0  0  0  0  0  0  0  0  0  0  0  0
    6.1640   -0.5579    0.0000 C   0  0  0  0  0  0  0  0  0  0  0  0
    4.6689    0.9311    0.0000 C   0  0  0  0  0  0  0  0  0  0  0  0
    6.6455    0.1061    0.0000 C   0  0  0  0  0  0  0  0  0  0  0  0
    3.2036   -0.7246    0.0000 C   0  0  0  0  0  0  0  0  0  0  0  0
    4.6821   -1.5783    0.0000 C   0  0  0  0  0  0  0  0  0  0  0  0
    3.9544    0.5186    0.0000 C   0  0  0  0  0  0  0  0  0  0  0  0
    5.3833    1.3436    0.0000 C   0  0  0  0  0  0  0  0  0  0  0  0
    3.9412   -2.0136    0.0000 C   0  0  0  0  0  0  0  0  0  0  0  0
    3.1970   -1.5840    0.0000 C   0  0  0  0  0  0  0  0  0  0  0  0
    2.4389   -0.2592    0.0000 C   0  0  0  0  0  0  0  0  0  0  0  0
    4.6689    1.7561    0.0000 C   0  0  0  0  0  0  0  0  0  0  0  0
    6.8323    1.2538    0.0000 C   0  0  0  0  0  0  0  0  0  0  0  0
    1.6570   -0.6948    0.0000 C   0  0  0  0  0  0  0  0  0  0  0  0
    2.4252   -2.0375    0.0000 C   0  0  0  0  0  0  0  0  0  0  0  0
    3.2399    0.9311    0.0000 C   0  0  0  0  0  0  0  0  0  0  0  0
    1.6500   -1.5899    0.0000 C   0  0  0  0  0  0  0  0  0  0  0  0
    7.5006    1.7376    0.0000 C   0  0  0  0  0  0  0  0  0  0  0  0
    0.0000    0.0000    0.0000 H   0  0  0  0  0  0  0  0  0  0  0  0
    0.0000    0.0000    0.0000 H   0  0  0  0  0  0  0  0  0  0  0  0
    0.0000    0.0000    0.0000 H   0  0  0  0  0  0  0  0  0  0  0  0
    0.0000    0.0000    0.0000 H   0  0  0  0  0  0  0  0  0  0  0  0
    0.0000    0.0000    0.0000 H   0  0  0  0  0  0  0  0  0  0  0  0
    0.0000    0.0000    0.0000 H   0  0  0  0  0  0  0  0  0  0  0  0
    0.0000    0.0000    0.0000 H   0  0  0  0  0  0  0  0  0  0  0  0
    0.0000    0.0000    0.0000 H   0  0  0  0  0  0  0  0  0  0  0  0
    0.0000    0.0000    0.0000 H   0  0  0  0  0  0  0  0  0  0  0  0
    0.0000    0.0000    0.0000 H   0  0  0  0  0  0  0  0  0  0  0  0
    0.0000    0.0000    0.0000 H   0  0  0  0  0  0  0  0  0  0  0  0
    0.0000    0.0000    0.0000 H   0  0  0  0  0  0  0  0  0  0  0  0
    0.0000    0.0000    0.0000 H   0  0  0  0  0  0  0  0  0  0  0  0
    0.0000    0.0000    0.0000 H   0  0  0  0  0  0  0  0  0  0  0  0
    0.0000    0.0000    0.0000 H   0  0  0  0  0  0  0  0  0  0  0  0
    0.0000    0.0000    0.0000 H   0  0  0  0  0  0  0  0  0  0  0  0
    0.0000    0.0000    0.0000 H   0  0  0  0  0  0  0  0  0  0  0  0
    0.0000    0.0000    0.0000 H   0  0  0  0  0  0  0  0  0  0  0  0
    0.0000    0.0000    0.0000 H   0  0  0  0  0  0  0  0  0  0  0  0
    0.0000    0.0000    0.0000 H   0  0  0  0  0  0  0  0  0  0  0  0
    0.0000    0.0000    0.0000 H   0  0  0  0  0  0  0  0  0  0  0  0
    0.0000    0.0000    0.0000 H   0  0  0  0  0  0  0  0  0  0  0  0
    0.0000    0.0000    0.0000 H   0  0  0  0  0  0  0  0  0  0  0  0
    0.0000    0.0000    0.0000 H   0  0  0  0  0  0  0  0  0  0  0  0
    0.0000    0.0000    0.0000 H   0  0  0  0  0  0  0  0  0  0  0  0
    0.0000    0.0000    0.0000 H   0  0  0  0  0  0  0  0  0  0  0  0
    0.0000    0.0000    0.0000 H   0  0  0  0  0  0  0  0  0  0  0  0
    0.0000    0.0000    0.0000 H   0  0  0  0  0  0  0  0  0  0  0  0
    0.0000    0.0000    0.0000 H   0  0  0  0  0  0  0  0  0  0  0  0
    0.0000    0.0000    0.0000 H   0  0  0  0  0  0  0  0  0  0  0  0
  6  1  1  1
  2  3  1  0
  2  6  1  0
  2  8  1  0
  2 13  1  1
  3  4  1  0
  3  7  1  0
  4  5  1  0
  4 11  1  0
  5 10  1  0
  5 12  1  0
  6  9  1  0
  6 18  1  0
  7  9  1  0
  8 12  1  0
 10 15  1  0
 10 16  1  0
 11 14  1  0
 12 21  2  3
 13 17  1  0
 14 15  1  0
 15 20  2  0
 16 19  1  0
 18 23  3  0
 19 22  1  0
 20 22  1  0
  1 24  1  0
  3 25  1  6
  4 26  1  1
  5 27  1  6
  7 28  1  0
  7 29  1  0
  8 30  1  0
  8 31  1  0
  9 32  1  0
  9 33  1  0
 10 34  1  1
 11 35  1  0
 11 36  1  0
 13 37  1  0
 13 38  1  0
 14 39  1  0
 14 40  1  0
 16 41  1  0
 16 42  1  0
 17 43  1  0
 17 44  1  0
 17 45  1  0
 19 46  1  0
 19 47  1  0
 20 48  1  0
 21 49  1  0
 21 50  1  0
 22 51  1  0
 22 52  1  0
 23 53  1  0
M  END
>  <ALOGPS_LOGP>  (1) 
4.30

>  <ALOGPS_LOGS>  (1) 
-5.01

>  <ALOGPS_SOLUBILITY>  (1) 
3.01e-03 g/l

>  <DATABASE_ID>  (1) 
DB00304

>  <DATABASE_NAME>  (1) 
drugbank

>  <DRUGBANK_ID>  (1) 
DB00304

>  <DRUG_GROUPS>  (1) 
approved

>  <EXACT_MASS>  (1) 
310.229665582

>  <FORMULA>  (1) 
C22H30O

>  <GENERIC_NAME>  (1) 
Desogestrel

>  <INCHI_IDENTIFIER>  (1) 
InChI=1S/C22H30O/c1-4-21-14-15(3)20-17-9-7-6-8-16(17)10-11-18(20)19(21)12-13-22(21,23)5-2/h2,8,17-20,23H,3-4,6-7,9-14H2,1H3/t17-,18-,19-,20+,21-,22-/m0/s1

>  <INCHI_KEY>  (1) 
RPLCPCMSCLEKRS-BPIQYHPVSA-N

>  <INTERNATIONAL_BRANDS>  (1) 
Cerazette; Marvelon

>  <JCHEM_ACCEPTOR_COUNT>  (1) 
1

>  <JCHEM_AVERAGE_POLARIZABILITY>  (1) 
37.541347454533124

>  <JCHEM_BIOAVAILABILITY>  (1) 
1

>  <JCHEM_DONOR_COUNT>  (1) 
1

>  <JCHEM_FORMAL_CHARGE>  (1) 
0

>  <JCHEM_GHOSE_FILTER>  (1) 
1

>  <JCHEM_IUPAC>  (1) 
(1S,2R,10S,11S,14R,15S)-15-ethyl-14-ethynyl-17-methylidenetetracyclo[8.7.0.0²,⁷.0¹¹,¹⁵]heptadec-6-en-14-ol

>  <JCHEM_LOGP>  (1) 
4.420642466666667

>  <JCHEM_MDDR_LIKE_RULE>  (1) 
0

>  <JCHEM_NUMBER_OF_RINGS>  (1) 
4

>  <JCHEM_PHYSIOLOGICAL_CHARGE>  (1) 
0

>  <JCHEM_PKA_STRONGEST_ACIDIC>  (1) 
17.993504322234944

>  <JCHEM_PKA_STRONGEST_BASIC>  (1) 
-1.4894412094544354

>  <JCHEM_POLAR_SURFACE_AREA>  (1) 
20.23

>  <JCHEM_REFRACTIVITY>  (1) 
95.73349999999999

>  <JCHEM_ROTATABLE_BOND_COUNT>  (1) 
1

>  <JCHEM_RULE_OF_FIVE>  (1) 
1

>  <JCHEM_TRADITIONAL_IUPAC>  (1) 
mircette

>  <JCHEM_VEBER_RULE>  (1) 
1

>  <MOLECULAR_WEIGHT>  (1) 
310.473

>  <PRODUCTS>  (1) 
Apri; Apri 21; Apri 28; Apri 28 Day; Caziant; Caziant Triphasic Regimen; Cyclessa; Cyred; Desogen; Desogestrel and Ethinyl Estradiol; Emoquette; Enskyce; Freya 21; Freya 28; Isibloom; Juleber; Kalliga; Kimidess; Linessa 21; Linessa 28; Marfem 21; Marfem 28; Marvelon 21; Marvelon 28; Mirvala 21; Mirvala 28; Ortho Cept; Ortho-cept Tablets (21 Day); Ortho-cept Tablets (28 Day); Reclipsen; Reclipsen 21; Reclipsen 28; Reclipsen 28 Day; Simliya; Velivet Triphasic Regimen; Viorele

>  <SECONDARY_ACCESSION_NUMBERS>  (1) 
APRD00762

>  <SMILES>  (1) 
[H][C@@]12CC[C@@](O)(C#C)[C@@]1(CC)CC(=C)[C@]1([H])[C@@]3([H])CCCC=C3CC[C@@]21[H]

>  <SYNONYMS>  (1) 
Desogestrelum

$$$$
