623
     RDKit          2D

 56 59  0  0  0  0  0  0  0  0999 V2000
    5.9361   -3.5410    0.0000 S   0  0  0  0  0  0  0  0  0  0  0  0
    8.4328   -1.1584    0.0000 F   0  0  0  0  0  0  0  0  0  0  0  0
    9.2631   -2.5840    0.0000 F   0  0  0  0  0  0  0  0  0  0  0  0
    9.5608   -1.4561    0.0000 F   0  0  0  0  0  0  0  0  0  0  0  0
    1.6498    3.0581    0.0000 O   0  0  0  0  0  0  0  0  0  0  0  0
    4.5073    0.5834    0.0000 N   0  0  0  0  0  0  0  0  0  0  0  0
    3.0786    1.4083    0.0000 N   0  0  0  0  0  0  0  0  0  0  0  0
    5.9361   -1.8912    0.0000 N   0  0  0  0  0  0  0  0  0  0  0  0
    3.7929    0.1710    0.0000 C   0  0  0  0  0  0  0  0  0  0  0  0
    4.5073    1.4083    0.0000 C   0  0  0  0  0  0  0  0  0  0  0  0
    3.0786    0.5834    0.0000 C   0  0  0  0  0  0  0  0  0  0  0  0
    3.7929    1.8208    0.0000 C   0  0  0  0  0  0  0  0  0  0  0  0
    5.2216    0.1710    0.0000 C   0  0  0  0  0  0  0  0  0  0  0  0
    5.2216   -0.6539    0.0000 C   0  0  0  0  0  0  0  0  0  0  0  0
    2.3641    1.8208    0.0000 C   0  0  0  0  0  0  0  0  0  0  0  0
    5.9361   -1.0664    0.0000 C   0  0  0  0  0  0  0  0  0  0  0  0
    2.3641    2.6456    0.0000 C   0  0  0  0  0  0  0  0  0  0  0  0
    6.6504   -2.3037    0.0000 C   0  0  0  0  0  0  0  0  0  0  0  0
    5.2216   -2.3037    0.0000 C   0  0  0  0  0  0  0  0  0  0  0  0
    6.6504   -3.1286    0.0000 C   0  0  0  0  0  0  0  0  0  0  0  0
    5.2216   -3.1286    0.0000 C   0  0  0  0  0  0  0  0  0  0  0  0
    7.3878   -1.8626    0.0000 C   0  0  0  0  0  0  0  0  0  0  0  0
    4.4843   -1.8626    0.0000 C   0  0  0  0  0  0  0  0  0  0  0  0
    8.1352   -2.2865    0.0000 C   0  0  0  0  0  0  0  0  0  0  0  0
    7.3878   -3.5695    0.0000 C   0  0  0  0  0  0  0  0  0  0  0  0
    4.4843   -3.5695    0.0000 C   0  0  0  0  0  0  0  0  0  0  0  0
    8.1352   -3.1457    0.0000 C   0  0  0  0  0  0  0  0  0  0  0  0
    3.7368   -2.2865    0.0000 C   0  0  0  0  0  0  0  0  0  0  0  0
    3.7368   -3.1457    0.0000 C   0  0  0  0  0  0  0  0  0  0  0  0
    8.8480   -1.8712    0.0000 C   0  0  0  0  0  0  0  0  0  0  0  0
    0.0000    0.0000    0.0000 H   0  0  0  0  0  0  0  0  0  0  0  0
    0.0000    0.0000    0.0000 H   0  0  0  0  0  0  0  0  0  0  0  0
    0.0000    0.0000    0.0000 H   0  0  0  0  0  0  0  0  0  0  0  0
    0.0000    0.0000    0.0000 H   0  0  0  0  0  0  0  0  0  0  0  0
    0.0000    0.0000    0.0000 H   0  0  0  0  0  0  0  0  0  0  0  0
    0.0000    0.0000    0.0000 H   0  0  0  0  0  0  0  0  0  0  0  0
    0.0000    0.0000    0.0000 H   0  0  0  0  0  0  0  0  0  0  0  0
    0.0000    0.0000    0.0000 H   0  0  0  0  0  0  0  0  0  0  0  0
    0.0000    0.0000    0.0000 H   0  0  0  0  0  0  0  0  0  0  0  0
    0.0000    0.0000    0.0000 H   0  0  0  0  0  0  0  0  0  0  0  0
    0.0000    0.0000    0.0000 H   0  0  0  0  0  0  0  0  0  0  0  0
    0.0000    0.0000    0.0000 H   0  0  0  0  0  0  0  0  0  0  0  0
    0.0000    0.0000    0.0000 H   0  0  0  0  0  0  0  0  0  0  0  0
    0.0000    0.0000    0.0000 H   0  0  0  0  0  0  0  0  0  0  0  0
    0.0000    0.0000    0.0000 H   0  0  0  0  0  0  0  0  0  0  0  0
    0.0000    0.0000    0.0000 H   0  0  0  0  0  0  0  0  0  0  0  0
    0.0000    0.0000    0.0000 H   0  0  0  0  0  0  0  0  0  0  0  0
    0.0000    0.0000    0.0000 H   0  0  0  0  0  0  0  0  0  0  0  0
    0.0000    0.0000    0.0000 H   0  0  0  0  0  0  0  0  0  0  0  0
    0.0000    0.0000    0.0000 H   0  0  0  0  0  0  0  0  0  0  0  0
    0.0000    0.0000    0.0000 H   0  0  0  0  0  0  0  0  0  0  0  0
    0.0000    0.0000    0.0000 H   0  0  0  0  0  0  0  0  0  0  0  0
    0.0000    0.0000    0.0000 H   0  0  0  0  0  0  0  0  0  0  0  0
    0.0000    0.0000    0.0000 H   0  0  0  0  0  0  0  0  0  0  0  0
    0.0000    0.0000    0.0000 H   0  0  0  0  0  0  0  0  0  0  0  0
    0.0000    0.0000    0.0000 H   0  0  0  0  0  0  0  0  0  0  0  0
  1 20  1  0
  1 21  1  0
  2 30  1  0
  3 30  1  0
  4 30  1  0
  5 17  1  0
  6  9  1  0
  6 10  1  0
  6 13  1  0
  7 11  1  0
  7 12  1  0
  7 15  1  0
  8 16  1  0
  8 18  1  0
  8 19  1  0
  9 11  1  0
 10 12  1  0
 13 14  1  0
 14 16  1  0
 15 17  1  0
 18 20  2  0
 18 22  1  0
 19 21  2  0
 19 23  1  0
 20 25  1  0
 21 26  1  0
 22 24  2  0
 23 28  2  0
 24 27  1  0
 24 30  1  0
 25 27  2  0
 26 29  2  0
 28 29  1  0
  5 31  1  0
  9 32  1  0
  9 33  1  0
 10 34  1  0
 10 35  1  0
 11 36  1  0
 11 37  1  0
 12 38  1  0
 12 39  1  0
 13 40  1  0
 13 41  1  0
 14 42  1  0
 14 43  1  0
 15 44  1  0
 15 45  1  0
 16 46  1  0
 16 47  1  0
 17 48  1  0
 17 49  1  0
 22 50  1  0
 23 51  1  0
 25 52  1  0
 26 53  1  0
 27 54  1  0
 28 55  1  0
 29 56  1  0
M  END
>  <ALOGPS_LOGP>  (1) 
4.40

>  <ALOGPS_LOGS>  (1) 
-4.36

>  <ALOGPS_SOLUBILITY>  (1) 
1.90e-02 g/l

>  <DATABASE_ID>  (1) 
DB00623

>  <DATABASE_NAME>  (1) 
drugbank

>  <DRUGBANK_ID>  (1) 
DB00623

>  <DRUG_GROUPS>  (1) 
approved

>  <EXACT_MASS>  (1) 
437.174867774

>  <FORMULA>  (1) 
C22H26F3N3OS

>  <GENERIC_NAME>  (1) 
Fluphenazine

>  <INCHI_IDENTIFIER>  (1) 
InChI=1S/C22H26F3N3OS/c23-22(24,25)17-6-7-21-19(16-17)28(18-4-1-2-5-20(18)30-21)9-3-8-26-10-12-27(13-11-26)14-15-29/h1-2,4-7,16,29H,3,8-15H2

>  <INCHI_KEY>  (1) 
PLDUPXSUYLZYBN-UHFFFAOYSA-N

>  <INTERNATIONAL_BRANDS>  (1) 
Anatensol; Dapotum D; Fludecasin; Fludecate; Flumezin; Funazine; Lyogen; Lyogen Depot; Lyogen Retard; Metoten; Modecate; Moditen; Moditen Depo; Permitil; Prolixin

>  <JCHEM_ACCEPTOR_COUNT>  (1) 
4

>  <JCHEM_AVERAGE_POLARIZABILITY>  (1) 
44.91856262387888

>  <JCHEM_BIOAVAILABILITY>  (1) 
1

>  <JCHEM_DONOR_COUNT>  (1) 
1

>  <JCHEM_FORMAL_CHARGE>  (1) 
0

>  <JCHEM_GHOSE_FILTER>  (1) 
1

>  <JCHEM_IUPAC>  (1) 
2-(4-{3-[2-(trifluoromethyl)-10H-phenothiazin-10-yl]propyl}piperazin-1-yl)ethan-1-ol

>  <JCHEM_LOGP>  (1) 
3.965821614666666

>  <JCHEM_MDDR_LIKE_RULE>  (1) 
1

>  <JCHEM_NUMBER_OF_RINGS>  (1) 
4

>  <JCHEM_PHYSIOLOGICAL_CHARGE>  (1) 
1

>  <JCHEM_PKA_STRONGEST_ACIDIC>  (1) 
15.593098118537455

>  <JCHEM_PKA_STRONGEST_BASIC>  (1) 
8.211427951218774

>  <JCHEM_POLAR_SURFACE_AREA>  (1) 
29.950000000000003

>  <JCHEM_REFRACTIVITY>  (1) 
117.26760000000002

>  <JCHEM_ROTATABLE_BOND_COUNT>  (1) 
7

>  <JCHEM_RULE_OF_FIVE>  (1) 
1

>  <JCHEM_TRADITIONAL_IUPAC>  (1) 
fluphenazine

>  <JCHEM_VEBER_RULE>  (1) 
1

>  <MOLECULAR_WEIGHT>  (1) 
437.522

>  <PRODUCTS>  (1) 
Apo Fluphenazine Tab 2.5mg; Apo-fluphenazine  Injectable; Fluphenazine; Fluphenazine 1 Tab 1mg; Fluphenazine 2 Tab 2mg; Fluphenazine 5 Tab 5mg; Fluphenazine Decanoate; Fluphenazine Decanoate Injection B.P.; Fluphenazine Decanoate Injection, USP; Fluphenazine Hydrochloride; Fluphenazine Omega; Fluphenazine hydrochloride; Modecate Concentrate; Modecate Inj 25mg/ml; Moditen Enanthate Inj 25mg/ml; Moditen HCl Tab 10mg; PMS Fluphenazine Tab 1mg; PMS Fluphenazine Tab 2mg; PMS Fluphenazine Tab 5mg; PMS-fluphenazine Decanoate; PMS-fluphenazine Decanoate Inj (bp) 25mg/ml; PMS-fluphenazine Elixir 0.5mg/ml; Rho-fluphenazine Decanoate Inj-25mg/ml Im Sc; Rho-fluphenazine Decanoate Inj.conc-100mg/ml

>  <SALTS>  (1) 
Fluphenazine decanoate; Fluphenazine dihydrochloride; Fluphenazine enanthate; Fluphenazine hydrochloride

>  <SECONDARY_ACCESSION_NUMBERS>  (1) 
APRD00633

>  <SMILES>  (1) 
OCCN1CCN(CCCN2C3=CC=CC=C3SC3=C2C=C(C=C3)C(F)(F)F)CC1

>  <SYNONYMS>  (1) 
Flufenazina; Fluorfenazine; Fluorophenazine; Fluorphenazine; Fluphenazin; Fluph√©nazine; Fluphenazinum; Triflumethazine

$$$$
