26987
     RDKit          2D

 50 52  0  0  1  0  0  0  0  0999 V2000
    2.4751   -3.0174    0.0000 Cl  0  0  0  0  0  0  0  0  0  0  0  0
    3.3001    0.2827    0.0000 O   0  0  0  0  0  0  0  0  0  0  0  0
    5.7706    1.7979    0.0000 N   0  0  0  0  0  0  0  0  0  0  0  0
    4.9501    1.7117    0.0000 C   0  0  0  0  0  0  0  0  0  0  0  0
    4.6146    2.4653    0.0000 C   0  0  0  0  0  0  0  0  0  0  0  0
    5.2276    3.0174    0.0000 C   0  0  0  0  0  0  0  0  0  0  0  0
    5.9421    2.6049    0.0000 C   0  0  0  0  0  0  0  0  0  0  0  0
    4.5376    0.9972    0.0000 C   0  0  0  0  0  0  0  0  0  0  0  0
    3.7126    0.9972    0.0000 C   0  0  0  0  0  0  0  0  0  0  0  0
    6.3226    1.1848    0.0000 C   0  0  0  0  0  0  0  0  0  0  0  0
    2.4751    0.2827    0.0000 C   0  0  0  0  0  0  0  0  0  0  0  0
    2.4751   -0.5424    0.0000 C   0  0  0  0  0  0  0  0  0  0  0  0
    2.4751    1.1077    0.0000 C   0  0  0  0  0  0  0  0  0  0  0  0
    1.6500    0.2827    0.0000 C   0  0  0  0  0  0  0  0  0  0  0  0
    1.7606   -0.9549    0.0000 C   0  0  0  0  0  0  0  0  0  0  0  0
    3.1895   -0.9549    0.0000 C   0  0  0  0  0  0  0  0  0  0  0  0
    3.1895    1.5202    0.0000 C   0  0  0  0  0  0  0  0  0  0  0  0
    1.7606    1.5202    0.0000 C   0  0  0  0  0  0  0  0  0  0  0  0
    1.7606   -1.7799    0.0000 C   0  0  0  0  0  0  0  0  0  0  0  0
    3.1895   -1.7799    0.0000 C   0  0  0  0  0  0  0  0  0  0  0  0
    3.1895    2.3452    0.0000 C   0  0  0  0  0  0  0  0  0  0  0  0
    1.7606    2.3452    0.0000 C   0  0  0  0  0  0  0  0  0  0  0  0
    2.4751   -2.1924    0.0000 C   0  0  0  0  0  0  0  0  0  0  0  0
    2.4751    2.7577    0.0000 C   0  0  0  0  0  0  0  0  0  0  0  0
    0.0000    0.0000    0.0000 H   0  0  0  0  0  0  0  0  0  0  0  0
    0.0000    0.0000    0.0000 H   0  0  0  0  0  0  0  0  0  0  0  0
    0.0000    0.0000    0.0000 H   0  0  0  0  0  0  0  0  0  0  0  0
    0.0000    0.0000    0.0000 H   0  0  0  0  0  0  0  0  0  0  0  0
    0.0000    0.0000    0.0000 H   0  0  0  0  0  0  0  0  0  0  0  0
    0.0000    0.0000    0.0000 H   0  0  0  0  0  0  0  0  0  0  0  0
    0.0000    0.0000    0.0000 H   0  0  0  0  0  0  0  0  0  0  0  0
    0.0000    0.0000    0.0000 H   0  0  0  0  0  0  0  0  0  0  0  0
    0.0000    0.0000    0.0000 H   0  0  0  0  0  0  0  0  0  0  0  0
    0.0000    0.0000    0.0000 H   0  0  0  0  0  0  0  0  0  0  0  0
    0.0000    0.0000    0.0000 H   0  0  0  0  0  0  0  0  0  0  0  0
    0.0000    0.0000    0.0000 H   0  0  0  0  0  0  0  0  0  0  0  0
    0.0000    0.0000    0.0000 H   0  0  0  0  0  0  0  0  0  0  0  0
    0.0000    0.0000    0.0000 H   0  0  0  0  0  0  0  0  0  0  0  0
    0.0000    0.0000    0.0000 H   0  0  0  0  0  0  0  0  0  0  0  0
    0.0000    0.0000    0.0000 H   0  0  0  0  0  0  0  0  0  0  0  0
    0.0000    0.0000    0.0000 H   0  0  0  0  0  0  0  0  0  0  0  0
    0.0000    0.0000    0.0000 H   0  0  0  0  0  0  0  0  0  0  0  0
    0.0000    0.0000    0.0000 H   0  0  0  0  0  0  0  0  0  0  0  0
    0.0000    0.0000    0.0000 H   0  0  0  0  0  0  0  0  0  0  0  0
    0.0000    0.0000    0.0000 H   0  0  0  0  0  0  0  0  0  0  0  0
    0.0000    0.0000    0.0000 H   0  0  0  0  0  0  0  0  0  0  0  0
    0.0000    0.0000    0.0000 H   0  0  0  0  0  0  0  0  0  0  0  0
    0.0000    0.0000    0.0000 H   0  0  0  0  0  0  0  0  0  0  0  0
    0.0000    0.0000    0.0000 H   0  0  0  0  0  0  0  0  0  0  0  0
    0.0000    0.0000    0.0000 H   0  0  0  0  0  0  0  0  0  0  0  0
  1 23  1  0
  2  9  1  0
 11  2  1  6
  3  4  1  0
  3  7  1  0
  3 10  1  0
  4  5  1  0
  4  8  1  1
  5  6  1  0
  6  7  1  0
  8  9  1  0
 11 12  1  0
 11 13  1  0
 11 14  1  0
 12 15  2  0
 12 16  1  0
 13 17  2  0
 13 18  1  0
 15 19  1  0
 16 20  2  0
 17 21  1  0
 18 22  2  0
 19 23  2  0
 20 23  1  0
 21 24  2  0
 22 24  1  0
  4 25  1  0
  5 26  1  0
  5 27  1  0
  6 28  1  0
  6 29  1  0
  7 30  1  0
  7 31  1  0
  8 32  1  0
  8 33  1  0
  9 34  1  0
  9 35  1  0
 10 36  1  0
 10 37  1  0
 10 38  1  0
 14 39  1  0
 14 40  1  0
 14 41  1  0
 15 42  1  0
 16 43  1  0
 17 44  1  0
 18 45  1  0
 19 46  1  0
 20 47  1  0
 21 48  1  0
 22 49  1  0
 24 50  1  0
M  END
>  <ALOGPS_LOGP>  (1) 
5.29

>  <ALOGPS_LOGS>  (1) 
-5.93

>  <ALOGPS_SOLUBILITY>  (1) 
4.05e-04 g/l

>  <DATABASE_ID>  (1) 
DB00283

>  <DATABASE_NAME>  (1) 
drugbank

>  <DRUGBANK_ID>  (1) 
DB00283

>  <DRUG_GROUPS>  (1) 
approved

>  <EXACT_MASS>  (1) 
343.170292166

>  <FORMULA>  (1) 
C21H26ClNO

>  <GENERIC_NAME>  (1) 
Clemastine

>  <INCHI_IDENTIFIER>  (1) 
InChI=1S/C21H26ClNO/c1-21(17-7-4-3-5-8-17,18-10-12-19(22)13-11-18)24-16-14-20-9-6-15-23(20)2/h3-5,7-8,10-13,20H,6,9,14-16H2,1-2H3/t20-,21-/m1/s1

>  <INCHI_KEY>  (1) 
YNNUSGIPVFPVBX-NHCUHLMSSA-N

>  <INTERNATIONAL_BRANDS>  (1) 
Agasten; Allerhist-1; Tavegil; Tavegyl; Tavist; Tavist-1

>  <JCHEM_ACCEPTOR_COUNT>  (1) 
2

>  <JCHEM_AVERAGE_POLARIZABILITY>  (1) 
39.06261954008974

>  <JCHEM_BIOAVAILABILITY>  (1) 
1

>  <JCHEM_DONOR_COUNT>  (1) 
0

>  <JCHEM_FORMAL_CHARGE>  (1) 
0

>  <JCHEM_GHOSE_FILTER>  (1) 
1

>  <JCHEM_IUPAC>  (1) 
(2R)-2-{2-[(1R)-1-(4-chlorophenyl)-1-phenylethoxy]ethyl}-1-methylpyrrolidine

>  <JCHEM_LOGP>  (1) 
4.923333277

>  <JCHEM_MDDR_LIKE_RULE>  (1) 
1

>  <JCHEM_NUMBER_OF_RINGS>  (1) 
3

>  <JCHEM_PHYSIOLOGICAL_CHARGE>  (1) 
1

>  <JCHEM_PKA_STRONGEST_BASIC>  (1) 
9.551244750561702

>  <JCHEM_POLAR_SURFACE_AREA>  (1) 
12.47

>  <JCHEM_REFRACTIVITY>  (1) 
101.64760000000003

>  <JCHEM_ROTATABLE_BOND_COUNT>  (1) 
6

>  <JCHEM_RULE_OF_FIVE>  (1) 
1

>  <JCHEM_TRADITIONAL_IUPAC>  (1) 
clemastine

>  <JCHEM_VEBER_RULE>  (1) 
1

>  <MOLECULAR_WEIGHT>  (1) 
343.89

>  <PRODUCTS>  (1) 
Allergy Relief; Clemastine Fumarate; Dayhist Allergy; Dayhist Allergy 12 Hour Relief; Dayhist allergy; Good Neighbor Pharmacy Dayhist Allergy; Good Sense dayhist allergy; Leader Allerhist; Sunmark 12 Hour Allergy Relief; Tavist Allergy; Tavist Syrup 0.5mg/5ml; Tavist Tablets 1mg; Tavist-D Tablets; Topcare Dayhist Allergy; Wal Hist; Wal Hist 12 Hour Relief

>  <SALTS>  (1) 
Clemastine fumarate

>  <SECONDARY_ACCESSION_NUMBERS>  (1) 
APRD00875

>  <SMILES>  (1) 
CN1CCC[C@@H]1CCO[C@](C)(C1=CC=CC=C1)C1=CC=C(Cl)C=C1

>  <SYNONYMS>  (1) 
(+)-(2R)-2-(2-(((R)-p-chloro-α-methyl-α-phenylbenzyl)oxy)ethyl)-1-methylpyrrolidine; (+)-(2R)-2-[2-[[(R)-p-chloro-α-methyl-α-phenylbenzyl]oxy]ethyl]-1-methylpyrrolidine; Clemastina; Clemastinum

$$$$
