
     RDKit          2D

216219  0  0  0  0  0  0  0  0999 V2000
   -1.8503   -2.0616    0.0000 C   0  0  0  0  0  0  0  0  0  0  0  0
   -1.8503   -2.8866    0.0000 O   0  0  0  0  0  0  0  0  0  0  0  0
   -2.5378   -1.6491    0.0000 C   0  0  0  0  0  0  0  0  0  0  0  0
   -3.2940   -2.0616    0.0000 N   0  0  0  0  0  0  0  0  0  0  0  0
   -2.5378   -0.8241    0.0000 C   0  0  0  0  0  0  0  0  0  0  0  0
   -0.3378   -1.2366    0.0000 O   0  0  0  0  0  0  0  0  0  0  0  0
   -6.9378   -1.6491    0.0000 C   0  0  0  0  0  0  0  0  0  0  0  0
   -4.0503   -1.6491    0.0000 C   0  0  0  0  0  0  0  0  0  0  0  0
   -6.9378   -0.8241    0.0000 O   0  0  0  0  0  0  0  0  0  0  0  0
   -6.1815   -2.0616    0.0000 C   0  0  0  0  0  0  0  0  0  0  0  0
   -4.0503   -0.8241    0.0000 O   0  0  0  0  0  0  0  0  0  0  0  0
   -5.4941   -1.6491    0.0000 C   0  0  0  0  0  0  0  0  0  0  0  0
   -4.7378   -2.0616    0.0000 C   0  0  0  0  0  0  0  0  0  0  0  0
   -7.6253   -2.0616    0.0000 O   0  0  0  0  0  0  0  0  0  0  0  0
   -4.7378   -2.8866    0.0000 N   0  0  0  0  0  0  0  0  0  0  0  0
   -5.4941   -0.8241    0.0000 C   0  0  0  0  0  0  0  0  0  0  0  0
   -5.4941   -3.3679    0.0000 C   0  0  0  0  0  0  0  0  0  0  0  0
   -5.4941   -4.1929    0.0000 C   0  0  0  0  0  0  0  0  0  0  0  0
   -6.1815   -2.8866    0.0000 O   0  0  0  0  0  0  0  0  0  0  0  0
   -4.7378   -4.6054    0.0000 N   0  0  0  0  0  0  0  0  0  0  0  0
   -6.1815   -4.6054    0.0000 C   0  0  0  0  0  0  0  0  0  0  0  0
   -6.1815   -5.4304    0.0000 O   0  0  0  0  0  0  0  0  0  0  0  0
   -4.7378   -5.4304    0.0000 C   0  0  0  0  0  0  0  0  0  0  0  0
   -5.4941   -5.8429    0.0000 O   0  0  0  0  0  0  0  0  0  0  0  0
   -3.2940   -5.4304    0.0000 N   0  0  0  0  0  0  0  0  0  0  0  0
   -4.0503   -5.8429    0.0000 C   0  0  0  0  0  0  0  0  0  0  0  0
   -2.5378   -3.3679    0.0000 O   0  0  0  0  0  0  0  0  0  0  0  0
   -1.1628   -5.8429    0.0000 N   0  0  0  0  0  0  0  0  0  0  0  0
   -3.2940   -4.6054    0.0000 O   0  0  0  0  0  0  0  0  0  0  0  0
   -2.5378   -6.6679    0.0000 O   0  0  0  0  0  0  0  0  0  0  0  0
   -1.8503   -5.4304    0.0000 C   0  0  0  0  0  0  0  0  0  0  0  0
   -2.5378   -4.1929    0.0000 C   0  0  0  0  0  0  0  0  0  0  0  0
   -2.5378   -5.8429    0.0000 C   0  0  0  0  0  0  0  0  0  0  0  0
   -1.8503   -4.6054    0.0000 C   0  0  0  0  0  0  0  0  0  0  0  0
   -0.4065   -5.4304    0.0000 C   0  0  0  0  0  0  0  0  0  0  0  0
   -0.4065   -4.6054    0.0000 O   0  0  0  0  0  0  0  0  0  0  0  0
    0.2808   -5.8429    0.0000 C   0  0  0  0  0  0  0  0  0  0  0  0
    1.0371   -5.4304    0.0000 N   0  0  0  0  0  0  0  0  0  0  0  0
    0.2808   -6.6679    0.0000 C   0  0  0  0  0  0  0  0  0  0  0  0
    1.7246   -3.3679    0.0000 O   0  0  0  0  0  0  0  0  0  0  0  0
    3.1683   -5.8429    0.0000 N   0  0  0  0  0  0  0  0  0  0  0  0
    1.0371   -4.6054    0.0000 O   0  0  0  0  0  0  0  0  0  0  0  0
    1.7246   -6.6679    0.0000 O   0  0  0  0  0  0  0  0  0  0  0  0
    2.4809   -5.4304    0.0000 C   0  0  0  0  0  0  0  0  0  0  0  0
    1.7246   -4.1929    0.0000 C   0  0  0  0  0  0  0  0  0  0  0  0
    1.7246   -5.8429    0.0000 C   0  0  0  0  0  0  0  0  0  0  0  0
    2.4809   -4.6054    0.0000 C   0  0  0  0  0  0  0  0  0  0  0  0
    4.6121   -4.1929    0.0000 C   0  0  0  0  0  0  0  0  0  0  0  0
    3.9246   -5.4304    0.0000 C   0  0  0  0  0  0  0  0  0  0  0  0
    5.3684   -4.6054    0.0000 C   0  0  0  0  0  0  0  0  0  0  0  0
    3.9246   -4.6054    0.0000 C   0  0  0  0  0  0  0  0  0  0  0  0
    3.1683   -4.1929    0.0000 N   0  0  0  0  0  0  0  0  0  0  0  0
    6.0558   -4.1929    0.0000 C   0  0  0  0  0  0  0  0  0  0  0  0
    6.8121   -4.6054    0.0000 N   0  0  0  0  0  0  0  0  0  0  0  0
    4.6121   -5.8429    0.0000 O   0  0  0  0  0  0  0  0  0  0  0  0
    3.1683   -3.3679    0.0000 C   0  0  0  0  0  0  0  0  0  0  0  0
    3.9246   -2.8866    0.0000 O   0  0  0  0  0  0  0  0  0  0  0  0
    2.4809   -2.0616    0.0000 N   0  0  0  0  0  0  0  0  0  0  0  0
    2.4809   -2.8866    0.0000 C   0  0  0  0  0  0  0  0  0  0  0  0
    1.7246   -0.8241    0.0000 C   0  0  0  0  0  0  0  0  0  0  0  0
    1.7246   -1.6491    0.0000 C   0  0  0  0  0  0  0  0  0  0  0  0
    1.0371   -2.0616    0.0000 O   0  0  0  0  0  0  0  0  0  0  0  0
    1.0371   -0.4116    0.0000 C   0  0  0  0  0  0  0  0  0  0  0  0
    2.4809   -0.4116    0.0000 N   0  0  0  0  0  0  0  0  0  0  0  0
    1.0371    0.4133    0.0000 C   0  0  0  0  0  0  0  0  0  0  0  0
    5.3403    0.4093    0.0000 O   0  0  0  0  0  0  0  0  0  0  0  0
    3.1683    1.6508    0.0000 N   0  0  0  0  0  0  0  0  0  0  0  0
    4.6428    1.6734    0.0000 O   0  0  0  0  0  0  0  0  0  0  0  0
    1.7246    0.8258    0.0000 O   0  0  0  0  0  0  0  0  0  0  0  0
    3.1683    0.8258    0.0000 C   0  0  0  0  0  0  0  0  0  0  0  0
    4.6470    0.8119    0.0000 C   0  0  0  0  0  0  0  0  0  0  0  0
    2.4809    0.4133    0.0000 C   0  0  0  0  0  0  0  0  0  0  0  0
    3.9246    0.4133    0.0000 C   0  0  0  0  0  0  0  0  0  0  0  0
    1.6557    3.3008    0.0000 C   0  0  0  0  0  0  0  0  0  0  0  0
    2.4120    2.0633    0.0000 C   0  0  0  0  0  0  0  0  0  0  0  0
    0.9683    2.8883    0.0000 C   0  0  0  0  0  0  0  0  0  0  0  0
    2.4120    2.8883    0.0000 C   0  0  0  0  0  0  0  0  0  0  0  0
    1.7245    1.6508    0.0000 O   0  0  0  0  0  0  0  0  0  0  0  0
    0.9683    2.0633    0.0000 O   0  0  0  0  0  0  0  0  0  0  0  0
    0.2120    3.3008    0.0000 N   0  0  0  0  0  0  0  0  0  0  0  0
    3.0995    3.3008    0.0000 N   0  0  0  0  0  0  0  0  0  0  0  0
    3.0995    4.1945    0.0000 C   0  0  0  0  0  0  0  0  0  0  0  0
    2.4120    4.6070    0.0000 O   0  0  0  0  0  0  0  0  0  0  0  0
    3.8558    4.6070    0.0000 C   0  0  0  0  0  0  0  0  0  0  0  0
    4.5432    4.1945    0.0000 C   0  0  0  0  0  0  0  0  0  0  0  0
    3.8558    5.4320    0.0000 N   0  0  0  0  0  0  0  0  0  0  0  0
    3.1682    5.8445    0.0000 C   0  0  0  0  0  0  0  0  0  0  0  0
    2.4120    5.4320    0.0000 C   0  0  0  0  0  0  0  0  0  0  0  0
   -1.8503    0.4133    0.0000 C   0  0  0  0  0  0  0  0  0  0  0  0
   -2.5378    0.8258    0.0000 C   0  0  0  0  0  0  0  0  0  0  0  0
   -2.5378    1.6508    0.0000 C   0  0  0  0  0  0  0  0  0  0  0  0
   -1.8503    2.0633    0.0000 C   0  0  0  0  0  0  0  0  0  0  0  0
   -1.1628    1.6508    0.0000 C   0  0  0  0  0  0  0  0  0  0  0  0
   -1.1628    0.8258    0.0000 C   0  0  0  0  0  0  0  0  0  0  0  0
   -3.2940    0.4133    0.0000 N   0  0  0  0  0  0  0  0  0  0  0  0
   -1.8503   -0.4116    0.0000 C   0  0  0  0  0  0  0  0  0  0  0  0
   -1.1628   -0.8241    0.0000 O   0  0  0  0  0  0  0  0  0  0  0  0
    5.2577    4.6070    0.0000 C   0  0  0  0  0  0  0  0  0  0  0  0
    5.3440    5.4275    0.0000 C   0  0  0  0  0  0  0  0  0  0  0  0
    6.1509    5.5990    0.0000 N   0  0  0  0  0  0  0  0  0  0  0  0
    6.5634    4.8845    0.0000 C   0  0  0  0  0  0  0  0  0  0  0  0
    6.0114    4.2715    0.0000 C   0  0  0  0  0  0  0  0  0  0  0  0
    6.2663    3.4869    0.0000 C   0  0  0  0  0  0  0  0  0  0  0  0
    7.3704    4.7130    0.0000 C   0  0  0  0  0  0  0  0  0  0  0  0
    7.6253    3.9284    0.0000 C   0  0  0  0  0  0  0  0  0  0  0  0
    7.0733    3.3153    0.0000 C   0  0  0  0  0  0  0  0  0  0  0  0
    3.1724    6.6679    0.0000 O   0  0  0  0  0  0  0  0  0  0  0  0
    1.7245    5.8445    0.0000 C   0  0  0  0  0  0  0  0  0  0  0  0
    0.9683    5.4320    0.0000 C   0  0  0  0  0  0  0  0  0  0  0  0
    0.2807    5.8445    0.0000 C   0  0  0  0  0  0  0  0  0  0  0  0
   -0.4754    5.4320    0.0000 C   0  0  0  0  0  0  0  0  0  0  0  0
   -1.1629    5.8445    0.0000 C   0  0  0  0  0  0  0  0  0  0  0  0
   -1.8504    5.4320    0.0000 C   0  0  0  0  0  0  0  0  0  0  0  0
   -2.6067    5.8445    0.0000 C   0  0  0  0  0  0  0  0  0  0  0  0
   -3.2942    5.4320    0.0000 C   0  0  0  0  0  0  0  0  0  0  0  0
    0.0000    0.0000    0.0000 H   0  0  0  0  0  0  0  0  0  0  0  0
    0.0000    0.0000    0.0000 H   0  0  0  0  0  0  0  0  0  0  0  0
    0.0000    0.0000    0.0000 H   0  0  0  0  0  0  0  0  0  0  0  0
    0.0000    0.0000    0.0000 H   0  0  0  0  0  0  0  0  0  0  0  0
    0.0000    0.0000    0.0000 H   0  0  0  0  0  0  0  0  0  0  0  0
    0.0000    0.0000    0.0000 H   0  0  0  0  0  0  0  0  0  0  0  0
    0.0000    0.0000    0.0000 H   0  0  0  0  0  0  0  0  0  0  0  0
    0.0000    0.0000    0.0000 H   0  0  0  0  0  0  0  0  0  0  0  0
    0.0000    0.0000    0.0000 H   0  0  0  0  0  0  0  0  0  0  0  0
    0.0000    0.0000    0.0000 H   0  0  0  0  0  0  0  0  0  0  0  0
    0.0000    0.0000    0.0000 H   0  0  0  0  0  0  0  0  0  0  0  0
    0.0000    0.0000    0.0000 H   0  0  0  0  0  0  0  0  0  0  0  0
    0.0000    0.0000    0.0000 H   0  0  0  0  0  0  0  0  0  0  0  0
    0.0000    0.0000    0.0000 H   0  0  0  0  0  0  0  0  0  0  0  0
    0.0000    0.0000    0.0000 H   0  0  0  0  0  0  0  0  0  0  0  0
    0.0000    0.0000    0.0000 H   0  0  0  0  0  0  0  0  0  0  0  0
    0.0000    0.0000    0.0000 H   0  0  0  0  0  0  0  0  0  0  0  0
    0.0000    0.0000    0.0000 H   0  0  0  0  0  0  0  0  0  0  0  0
    0.0000    0.0000    0.0000 H   0  0  0  0  0  0  0  0  0  0  0  0
    0.0000    0.0000    0.0000 H   0  0  0  0  0  0  0  0  0  0  0  0
    0.0000    0.0000    0.0000 H   0  0  0  0  0  0  0  0  0  0  0  0
    0.0000    0.0000    0.0000 H   0  0  0  0  0  0  0  0  0  0  0  0
    0.0000    0.0000    0.0000 H   0  0  0  0  0  0  0  0  0  0  0  0
    0.0000    0.0000    0.0000 H   0  0  0  0  0  0  0  0  0  0  0  0
    0.0000    0.0000    0.0000 H   0  0  0  0  0  0  0  0  0  0  0  0
    0.0000    0.0000    0.0000 H   0  0  0  0  0  0  0  0  0  0  0  0
    0.0000    0.0000    0.0000 H   0  0  0  0  0  0  0  0  0  0  0  0
    0.0000    0.0000    0.0000 H   0  0  0  0  0  0  0  0  0  0  0  0
    0.0000    0.0000    0.0000 H   0  0  0  0  0  0  0  0  0  0  0  0
    0.0000    0.0000    0.0000 H   0  0  0  0  0  0  0  0  0  0  0  0
    0.0000    0.0000    0.0000 H   0  0  0  0  0  0  0  0  0  0  0  0
    0.0000    0.0000    0.0000 H   0  0  0  0  0  0  0  0  0  0  0  0
    0.0000    0.0000    0.0000 H   0  0  0  0  0  0  0  0  0  0  0  0
    0.0000    0.0000    0.0000 H   0  0  0  0  0  0  0  0  0  0  0  0
    0.0000    0.0000    0.0000 H   0  0  0  0  0  0  0  0  0  0  0  0
    0.0000    0.0000    0.0000 H   0  0  0  0  0  0  0  0  0  0  0  0
    0.0000    0.0000    0.0000 H   0  0  0  0  0  0  0  0  0  0  0  0
    0.0000    0.0000    0.0000 H   0  0  0  0  0  0  0  0  0  0  0  0
    0.0000    0.0000    0.0000 H   0  0  0  0  0  0  0  0  0  0  0  0
    0.0000    0.0000    0.0000 H   0  0  0  0  0  0  0  0  0  0  0  0
    0.0000    0.0000    0.0000 H   0  0  0  0  0  0  0  0  0  0  0  0
    0.0000    0.0000    0.0000 H   0  0  0  0  0  0  0  0  0  0  0  0
    0.0000    0.0000    0.0000 H   0  0  0  0  0  0  0  0  0  0  0  0
    0.0000    0.0000    0.0000 H   0  0  0  0  0  0  0  0  0  0  0  0
    0.0000    0.0000    0.0000 H   0  0  0  0  0  0  0  0  0  0  0  0
    0.0000    0.0000    0.0000 H   0  0  0  0  0  0  0  0  0  0  0  0
    0.0000    0.0000    0.0000 H   0  0  0  0  0  0  0  0  0  0  0  0
    0.0000    0.0000    0.0000 H   0  0  0  0  0  0  0  0  0  0  0  0
    0.0000    0.0000    0.0000 H   0  0  0  0  0  0  0  0  0  0  0  0
    0.0000    0.0000    0.0000 H   0  0  0  0  0  0  0  0  0  0  0  0
    0.0000    0.0000    0.0000 H   0  0  0  0  0  0  0  0  0  0  0  0
    0.0000    0.0000    0.0000 H   0  0  0  0  0  0  0  0  0  0  0  0
    0.0000    0.0000    0.0000 H   0  0  0  0  0  0  0  0  0  0  0  0
    0.0000    0.0000    0.0000 H   0  0  0  0  0  0  0  0  0  0  0  0
    0.0000    0.0000    0.0000 H   0  0  0  0  0  0  0  0  0  0  0  0
    0.0000    0.0000    0.0000 H   0  0  0  0  0  0  0  0  0  0  0  0
    0.0000    0.0000    0.0000 H   0  0  0  0  0  0  0  0  0  0  0  0
    0.0000    0.0000    0.0000 H   0  0  0  0  0  0  0  0  0  0  0  0
    0.0000    0.0000    0.0000 H   0  0  0  0  0  0  0  0  0  0  0  0
    0.0000    0.0000    0.0000 H   0  0  0  0  0  0  0  0  0  0  0  0
    0.0000    0.0000    0.0000 H   0  0  0  0  0  0  0  0  0  0  0  0
    0.0000    0.0000    0.0000 H   0  0  0  0  0  0  0  0  0  0  0  0
    0.0000    0.0000    0.0000 H   0  0  0  0  0  0  0  0  0  0  0  0
    0.0000    0.0000    0.0000 H   0  0  0  0  0  0  0  0  0  0  0  0
    0.0000    0.0000    0.0000 H   0  0  0  0  0  0  0  0  0  0  0  0
    0.0000    0.0000    0.0000 H   0  0  0  0  0  0  0  0  0  0  0  0
    0.0000    0.0000    0.0000 H   0  0  0  0  0  0  0  0  0  0  0  0
    0.0000    0.0000    0.0000 H   0  0  0  0  0  0  0  0  0  0  0  0
    0.0000    0.0000    0.0000 H   0  0  0  0  0  0  0  0  0  0  0  0
    0.0000    0.0000    0.0000 H   0  0  0  0  0  0  0  0  0  0  0  0
    0.0000    0.0000    0.0000 H   0  0  0  0  0  0  0  0  0  0  0  0
    0.0000    0.0000    0.0000 H   0  0  0  0  0  0  0  0  0  0  0  0
    0.0000    0.0000    0.0000 H   0  0  0  0  0  0  0  0  0  0  0  0
    0.0000    0.0000    0.0000 H   0  0  0  0  0  0  0  0  0  0  0  0
    0.0000    0.0000    0.0000 H   0  0  0  0  0  0  0  0  0  0  0  0
    0.0000    0.0000    0.0000 H   0  0  0  0  0  0  0  0  0  0  0  0
    0.0000    0.0000    0.0000 H   0  0  0  0  0  0  0  0  0  0  0  0
    0.0000    0.0000    0.0000 H   0  0  0  0  0  0  0  0  0  0  0  0
    0.0000    0.0000    0.0000 H   0  0  0  0  0  0  0  0  0  0  0  0
    0.0000    0.0000    0.0000 H   0  0  0  0  0  0  0  0  0  0  0  0
    0.0000    0.0000    0.0000 H   0  0  0  0  0  0  0  0  0  0  0  0
    0.0000    0.0000    0.0000 H   0  0  0  0  0  0  0  0  0  0  0  0
    0.0000    0.0000    0.0000 H   0  0  0  0  0  0  0  0  0  0  0  0
    0.0000    0.0000    0.0000 H   0  0  0  0  0  0  0  0  0  0  0  0
    0.0000    0.0000    0.0000 H   0  0  0  0  0  0  0  0  0  0  0  0
    0.0000    0.0000    0.0000 H   0  0  0  0  0  0  0  0  0  0  0  0
    0.0000    0.0000    0.0000 H   0  0  0  0  0  0  0  0  0  0  0  0
    0.0000    0.0000    0.0000 H   0  0  0  0  0  0  0  0  0  0  0  0
    0.0000    0.0000    0.0000 H   0  0  0  0  0  0  0  0  0  0  0  0
    0.0000    0.0000    0.0000 H   0  0  0  0  0  0  0  0  0  0  0  0
    0.0000    0.0000    0.0000 H   0  0  0  0  0  0  0  0  0  0  0  0
    0.0000    0.0000    0.0000 H   0  0  0  0  0  0  0  0  0  0  0  0
    0.0000    0.0000    0.0000 H   0  0  0  0  0  0  0  0  0  0  0  0
    0.0000    0.0000    0.0000 H   0  0  0  0  0  0  0  0  0  0  0  0
    0.0000    0.0000    0.0000 H   0  0  0  0  0  0  0  0  0  0  0  0
    0.0000    0.0000    0.0000 H   0  0  0  0  0  0  0  0  0  0  0  0
    0.0000    0.0000    0.0000 H   0  0  0  0  0  0  0  0  0  0  0  0
    0.0000    0.0000    0.0000 H   0  0  0  0  0  0  0  0  0  0  0  0
    0.0000    0.0000    0.0000 H   0  0  0  0  0  0  0  0  0  0  0  0
    0.0000    0.0000    0.0000 H   0  0  0  0  0  0  0  0  0  0  0  0
    0.0000    0.0000    0.0000 H   0  0  0  0  0  0  0  0  0  0  0  0
  2  1  2  0
  3  1  1  0
  6  1  1  0
  3  4  1  0
  3  5  1  1
  8  4  1  0
 96  5  1  0
 63  6  1  0
  9  7  2  0
 10  7  1  0
 14  7  1  0
 13  8  1  0
 11  8  2  0
 12 10  1  6
 13 12  1  0
 12 16  1  0
 13 15  1  0
 17 15  1  0
 18 17  1  0
 19 17  2  0
 18 20  1  0
 18 21  1  1
 23 20  1  0
 22 21  1  0
 24 23  2  0
 26 23  1  0
 26 25  1  0
 33 25  1  0
 32 27  1  0
 31 28  1  0
 35 28  1  0
 32 29  2  0
 33 30  2  0
 33 31  1  0
 31 34  1  6
 34 32  1  0
 36 35  2  0
 37 35  1  0
 37 38  1  0
 37 39  1  1
 46 38  1  0
 45 40  1  0
 44 41  1  0
 49 41  1  0
 45 42  2  0
 46 43  2  0
 46 44  1  0
 44 47  1  6
 47 45  1  0
 50 48  1  0
 51 48  1  1
 51 49  1  0
 55 49  2  0
 53 50  1  0
 51 52  1  0
 56 52  1  0
 54 53  1  0
 57 56  2  0
 59 56  1  0
 59 58  1  0
 61 58  1  0
 61 60  1  0
 63 60  1  0
 60 64  1  1
 62 61  2  0
 63 65  1  6
 72 64  1  0
 71 66  1  0
 70 67  1  1
 75 67  1  0
 71 68  2  0
 72 69  2  0
 72 70  1  0
 73 70  1  0
 73 71  1  0
 76 74  1  0
 77 74  1  6
 77 75  1  0
 78 75  2  0
 79 76  2  0
 80 76  1  0
 77 81  1  0
 82 81  1  0
 83 82  2  0
 84 82  1  1
 85 84  1  0
 84 86  1  0
 87 86  1  0
 88 87  1  0
 94 89  1  0
 90 89  2  0
 96 89  1  0
 91 90  1  0
 95 90  1  0
 92 91  2  0
 93 92  1  0
 94 93  2  0
 97 96  2  0
 98 85  1  0
 99 98  2  0
102 98  1  0
100 99  1  0
101100  1  0
102101  2  0
104101  1  0
103102  1  0
106103  2  0
105104  2  0
106105  1  0
 87107  2  0
108 88  1  0
109108  1  0
110109  1  0
111110  1  0
112111  1  0
113112  1  0
114113  1  0
115114  1  0
  3116  1  0
  4117  1  0
  5118  1  0
  5119  1  0
 10120  1  0
 10121  1  0
 12122  1  0
 13123  1  6
 14124  1  0
 15125  1  0
 16126  1  0
 16127  1  0
 16128  1  0
 18129  1  0
 20130  1  0
 21131  1  0
 21132  1  0
 22133  1  0
 25134  1  0
 26135  1  0
 26136  1  0
 27137  1  0
 28138  1  0
 31139  1  0
 34140  1  0
 34141  1  0
 37142  1  0
 38143  1  0
 39144  1  0
 39145  1  0
 39146  1  0
 40147  1  0
 41148  1  0
 44149  1  0
 47150  1  0
 47151  1  0
 48152  1  0
 48153  1  0
 50154  1  0
 50155  1  0
 51156  1  0
 52157  1  0
 53158  1  0
 53159  1  0
 54160  1  0
 54161  1  0
 58162  1  0
 59163  1  0
 59164  1  0
 60165  1  0
 63166  1  0
 64167  1  0
 65168  1  0
 65169  1  0
 65170  1  0
 66171  1  0
 67172  1  0
 70173  1  0
 73174  1  0
 73175  1  0
 74176  1  0
 74177  1  0
 77178  1  0
 80179  1  0
 80180  1  0
 81181  1  0
 84182  1  0
 85183  1  0
 85184  1  0
 86185  1  0
 88186  1  0
 88187  1  0
 91188  1  0
 92189  1  0
 93190  1  0
 94191  1  0
 95192  1  0
 95193  1  0
 99194  1  0
100195  1  0
103196  1  0
104197  1  0
105198  1  0
106199  1  0
108200  1  0
108201  1  0
109202  1  0
109203  1  0
110204  1  0
110205  1  0
111206  1  0
111207  1  0
112208  1  0
112209  1  0
113210  1  0
113211  1  0
114212  1  0
114213  1  0
115214  1  0
115215  1  0
115216  1  0
M  END
>  <ALOGPS_LOGP>  (1) 
-0.47

>  <ALOGPS_LOGS>  (1) 
-4.97

>  <ALOGPS_SOLUBILITY>  (1) 
1.73e-02 g/l

>  <DATABASE_ID>  (1) 
DB00080

>  <DATABASE_NAME>  (1) 
drugbank

>  <DRUGBANK_ID>  (1) 
DB00080

>  <DRUG_GROUPS>  (1) 
approved; investigational

>  <EXACT_MASS>  (1) 
1619.71036644

>  <FORMULA>  (1) 
C72H101N17O26

>  <GENERIC_NAME>  (1) 
Daptomycin

>  <INCHI_IDENTIFIER>  (1) 
InChI=1S/C72H101N17O26/c1-5-6-7-8-9-10-11-22-53(93)81-44(25-38-31-76-42-20-15-13-17-39(38)42)66(108)84-45(27-52(75)92)67(109)86-48(30-59(102)103)68(110)89-61-37(4)115-72(114)49(26-51(91)40-18-12-14-19-41(40)74)87-71(113)60(35(2)24-56(96)97)88-69(111)50(34-90)82-55(95)32-77-63(105)46(28-57(98)99)83-62(104)36(3)79-65(107)47(29-58(100)101)85-64(106)43(21-16-23-73)80-54(94)33-78-70(61)112/h12-15,17-20,31,35-37,43-50,60-61,76,90H,5-11,16,21-30,32-34,73-74H2,1-4H3,(H2,75,92)(H,77,105)(H,78,112)(H,79,107)(H,80,94)(H,81,93)(H,82,95)(H,83,104)(H,84,108)(H,85,106)(H,86,109)(H,87,113)(H,88,111)(H,89,110)(H,96,97)(H,98,99)(H,100,101)(H,102,103)/t35-,36-,37-,43+,44+,45+,46+,47+,48+,49+,50-,60+,61+/m1/s1

>  <INCHI_KEY>  (1) 
DOAKLVKFURWEDJ-RWDRXURGSA-N

>  <JCHEM_ACCEPTOR_COUNT>  (1) 
27

>  <JCHEM_ATOM_COUNT>  (1) 
216

>  <JCHEM_AVERAGE_POLARIZABILITY>  (1) 
161.47964273425862

>  <JCHEM_BIOAVAILABILITY>  (1) 
0

>  <JCHEM_DONOR_COUNT>  (1) 
22

>  <JCHEM_FORMAL_CHARGE>  (1) 
0

>  <JCHEM_GHOSE_FILTER>  (1) 
0

>  <JCHEM_IUPAC>  (1) 
(3S)-3-{[(3S,6S,9R,15S,18R,21S,24S,30S,31R)-3-[2-(2-aminophenyl)-2-oxoethyl]-24-(3-aminopropyl)-15,21-bis(carboxymethyl)-6-[(2R)-1-carboxypropan-2-yl]-9-(hydroxymethyl)-18,31-dimethyl-2,5,8,11,14,17,20,23,26,29-decaoxo-1-oxa-4,7,10,13,16,19,22,25,28-nonaazacyclohentriacontan-30-yl]carbamoyl}-3-[(2S)-3-carbamoyl-2-[(2S)-2-decanamido-3-(1H-indol-3-yl)propanamido]propanamido]propanoic acid

>  <JCHEM_LOGP>  (1) 
-9.365402671272518

>  <JCHEM_MDDR_LIKE_RULE>  (1) 
1

>  <JCHEM_NUMBER_OF_RINGS>  (1) 
4

>  <JCHEM_PHYSIOLOGICAL_CHARGE>  (1) 
-3

>  <JCHEM_PKA>  (1) 
3.40977094699184

>  <JCHEM_PKA_STRONGEST_ACIDIC>  (1) 
2.9766473286002766

>  <JCHEM_PKA_STRONGEST_BASIC>  (1) 
9.593421979944157

>  <JCHEM_POLAR_SURFACE_AREA>  (1) 
702.02

>  <JCHEM_REFRACTIVITY>  (1) 
393.5654000000003

>  <JCHEM_ROTATABLE_BOND_COUNT>  (1) 
35

>  <JCHEM_RULE_OF_FIVE>  (1) 
0

>  <JCHEM_TRADITIONAL_IUPAC>  (1) 
(3S)-3-{[(3S,6S,9R,15S,18R,21S,24S,30S,31R)-3-[2-(2-aminophenyl)-2-oxoethyl]-24-(3-aminopropyl)-15,21-bis(carboxymethyl)-6-[(2R)-1-carboxypropan-2-yl]-9-(hydroxymethyl)-18,31-dimethyl-2,5,8,11,14,17,20,23,26,29-decaoxo-1-oxa-4,7,10,13,16,19,22,25,28-nonaazacyclohentriacontan-30-yl]carbamoyl}-3-[(2S)-3-carbamoyl-2-[(2S)-2-decanamido-3-(1H-indol-3-yl)propanamido]propanamido]propanoic acid

>  <JCHEM_VEBER_RULE>  (1) 
0

>  <MOLECULAR_WEIGHT>  (1) 
1620.693

>  <PRODUCTS>  (1) 
Cubicin; Cubicin RF; Daptomycin

>  <SECONDARY_ACCESSION_NUMBERS>  (1) 
BTD00111; BIOD00111

>  <SMILES>  (1) 
CCCCCCCCCC(=O)N[C@@H](CC1=CNC2=C1C=CC=C2)C(=O)N[C@@H](CC(N)=O)C(=O)N[C@@H](CC(O)=O)C(=O)N[C@H]1[C@@H](C)OC(=O)[C@H](CC(=O)C2=C(N)C=CC=C2)NC(=O)[C@@H](NC(=O)[C@@H](CO)NC(=O)CNC(=O)[C@H](CC(O)=O)NC(=O)[C@@H](C)NC(=O)[C@H](CC(O)=O)NC(=O)[C@H](CCCN)NC(=O)CNC1=O)[C@H](C)CC(O)=O

$$$$
