646
     RDKit          2D

140141  0  0  1  0  0  0  0  0999 V2000
    4.9509    3.3001    0.0000 O   0  0  0  0  0  0  0  0  0  0  0  0
    4.2365    2.0625    0.0000 O   0  0  0  0  0  0  0  0  0  0  0  0
    2.8075    2.8876    0.0000 O   0  0  0  0  0  0  0  0  0  0  0  0
    4.2365    5.3626    0.0000 O   0  0  0  0  0  0  0  0  0  0  0  0
    7.0944    2.0625    0.0000 O   0  0  0  0  0  0  0  0  0  0  0  0
    5.3832    1.1878    0.0000 O   0  0  0  0  0  0  0  0  0  0  0  0
    9.2379   -4.1251    0.0000 O   0  0  0  0  0  0  0  0  0  0  0  0
    6.7925   -0.9356    0.0000 O   0  0  0  0  0  0  0  0  0  0  0  0
    5.6655   -2.8876    0.0000 O   0  0  0  0  0  0  0  0  0  0  0  0
    8.5234   -2.8876    0.0000 O   0  0  0  0  0  0  0  0  0  0  0  0
    7.6175    1.5395    0.0000 O   0  0  0  0  0  0  0  0  0  0  0  0
   10.6668   -1.6500    0.0000 O   0  0  0  0  0  0  0  0  0  0  0  0
    7.0944   -5.3626    0.0000 O   0  0  0  0  0  0  0  0  0  0  0  0
    7.6175    0.1106    0.0000 O   0  0  0  0  0  0  0  0  0  0  0  0
    4.2365   -1.2375    0.0000 O   0  0  0  0  0  0  0  0  0  0  0  0
   11.3814   -2.8876    0.0000 O   0  0  0  0  0  0  0  0  0  0  0  0
    9.9524   -5.3626    0.0000 O   0  0  0  0  0  0  0  0  0  0  0  0
    2.8075    4.5376    0.0000 N   0  0  0  0  0  0  0  0  0  0  0  0
    3.5220    4.1251    0.0000 C   0  0  0  0  0  0  0  0  0  0  0  0
    3.5220    3.3001    0.0000 C   0  0  0  0  0  0  0  0  0  0  0  0
    4.2365    4.5376    0.0000 C   0  0  0  0  0  0  0  0  0  0  0  0
    4.2365    2.8876    0.0000 C   0  0  0  0  0  0  0  0  0  0  0  0
    4.9509    4.1251    0.0000 C   0  0  0  0  0  0  0  0  0  0  0  0
    4.9509    1.6500    0.0000 C   0  0  0  0  0  0  0  0  0  0  0  0
    5.6655    2.0625    0.0000 C   0  0  0  0  0  0  0  0  0  0  0  0
    6.3799    1.6500    0.0000 C   0  0  0  0  0  0  0  0  0  0  0  0
    6.3799    0.8250    0.0000 C   0  0  0  0  0  0  0  0  0  0  0  0
    5.6655    4.5376    0.0000 C   0  0  0  0  0  0  0  0  0  0  0  0
    5.6655    0.4125    0.0000 C   0  0  0  0  0  0  0  0  0  0  0  0
    5.6655   -0.4125    0.0000 C   0  0  0  0  0  0  0  0  0  0  0  0
    4.9509    0.8250    0.0000 C   0  0  0  0  0  0  0  0  0  0  0  0
    6.3799   -1.6500    0.0000 C   0  0  0  0  0  0  0  0  0  0  0  0
    5.6655   -2.0625    0.0000 C   0  0  0  0  0  0  0  0  0  0  0  0
    7.0944   -2.0625    0.0000 C   0  0  0  0  0  0  0  0  0  0  0  0
    7.8089   -1.6500    0.0000 C   0  0  0  0  0  0  0  0  0  0  0  0
    8.5234   -2.0625    0.0000 C   0  0  0  0  0  0  0  0  0  0  0  0
    4.9509   -1.6500    0.0000 C   0  0  0  0  0  0  0  0  0  0  0  0
    7.8089   -4.1251    0.0000 C   0  0  0  0  0  0  0  0  0  0  0  0
    9.2379   -1.6500    0.0000 C   0  0  0  0  0  0  0  0  0  0  0  0
    7.2050    0.8250    0.0000 C   0  0  0  0  0  0  0  0  0  0  0  0
    4.9509   -0.8250    0.0000 C   0  0  0  0  0  0  0  0  0  0  0  0
    9.9524   -2.0625    0.0000 C   0  0  0  0  0  0  0  0  0  0  0  0
    7.0944   -4.5376    0.0000 C   0  0  0  0  0  0  0  0  0  0  0  0
    8.5234   -4.5376    0.0000 C   0  0  0  0  0  0  0  0  0  0  0  0
    9.9524   -2.8876    0.0000 C   0  0  0  0  0  0  0  0  0  0  0  0
    6.3799   -4.1251    0.0000 C   0  0  0  0  0  0  0  0  0  0  0  0
   10.6668   -3.3001    0.0000 C   0  0  0  0  0  0  0  0  0  0  0  0
    7.8089   -3.3001    0.0000 C   0  0  0  0  0  0  0  0  0  0  0  0
    4.2365    0.4125    0.0000 C   0  0  0  0  0  0  0  0  0  0  0  0
   10.6668   -4.1251    0.0000 C   0  0  0  0  0  0  0  0  0  0  0  0
    8.5234   -5.3626    0.0000 C   0  0  0  0  0  0  0  0  0  0  0  0
    6.3799   -3.3001    0.0000 C   0  0  0  0  0  0  0  0  0  0  0  0
    9.9524   -4.5376    0.0000 C   0  0  0  0  0  0  0  0  0  0  0  0
    5.6655   -4.5376    0.0000 C   0  0  0  0  0  0  0  0  0  0  0  0
    4.2365   -0.4125    0.0000 C   0  0  0  0  0  0  0  0  0  0  0  0
    4.9509   -4.1251    0.0000 C   0  0  0  0  0  0  0  0  0  0  0  0
    3.5220   -0.8250    0.0000 C   0  0  0  0  0  0  0  0  0  0  0  0
    4.2365   -4.5376    0.0000 C   0  0  0  0  0  0  0  0  0  0  0  0
    3.5220   -1.6500    0.0000 C   0  0  0  0  0  0  0  0  0  0  0  0
    3.5220   -4.1251    0.0000 C   0  0  0  0  0  0  0  0  0  0  0  0
    2.8075   -4.5376    0.0000 C   0  0  0  0  0  0  0  0  0  0  0  0
    2.8075   -2.0625    0.0000 C   0  0  0  0  0  0  0  0  0  0  0  0
    2.0930   -4.1251    0.0000 C   0  0  0  0  0  0  0  0  0  0  0  0
    2.8075   -2.8876    0.0000 C   0  0  0  0  0  0  0  0  0  0  0  0
    2.0930   -3.3001    0.0000 C   0  0  0  0  0  0  0  0  0  0  0  0
    0.0000    0.0000    0.0000 H   0  0  0  0  0  0  0  0  0  0  0  0
    0.0000    0.0000    0.0000 H   0  0  0  0  0  0  0  0  0  0  0  0
    0.0000    0.0000    0.0000 H   0  0  0  0  0  0  0  0  0  0  0  0
    0.0000    0.0000    0.0000 H   0  0  0  0  0  0  0  0  0  0  0  0
    0.0000    0.0000    0.0000 H   0  0  0  0  0  0  0  0  0  0  0  0
    0.0000    0.0000    0.0000 H   0  0  0  0  0  0  0  0  0  0  0  0
    0.0000    0.0000    0.0000 H   0  0  0  0  0  0  0  0  0  0  0  0
    0.0000    0.0000    0.0000 H   0  0  0  0  0  0  0  0  0  0  0  0
    0.0000    0.0000    0.0000 H   0  0  0  0  0  0  0  0  0  0  0  0
    0.0000    0.0000    0.0000 H   0  0  0  0  0  0  0  0  0  0  0  0
    0.0000    0.0000    0.0000 H   0  0  0  0  0  0  0  0  0  0  0  0
    0.0000    0.0000    0.0000 H   0  0  0  0  0  0  0  0  0  0  0  0
    0.0000    0.0000    0.0000 H   0  0  0  0  0  0  0  0  0  0  0  0
    0.0000    0.0000    0.0000 H   0  0  0  0  0  0  0  0  0  0  0  0
    0.0000    0.0000    0.0000 H   0  0  0  0  0  0  0  0  0  0  0  0
    0.0000    0.0000    0.0000 H   0  0  0  0  0  0  0  0  0  0  0  0
    0.0000    0.0000    0.0000 H   0  0  0  0  0  0  0  0  0  0  0  0
    0.0000    0.0000    0.0000 H   0  0  0  0  0  0  0  0  0  0  0  0
    0.0000    0.0000    0.0000 H   0  0  0  0  0  0  0  0  0  0  0  0
    0.0000    0.0000    0.0000 H   0  0  0  0  0  0  0  0  0  0  0  0
    0.0000    0.0000    0.0000 H   0  0  0  0  0  0  0  0  0  0  0  0
    0.0000    0.0000    0.0000 H   0  0  0  0  0  0  0  0  0  0  0  0
    0.0000    0.0000    0.0000 H   0  0  0  0  0  0  0  0  0  0  0  0
    0.0000    0.0000    0.0000 H   0  0  0  0  0  0  0  0  0  0  0  0
    0.0000    0.0000    0.0000 H   0  0  0  0  0  0  0  0  0  0  0  0
    0.0000    0.0000    0.0000 H   0  0  0  0  0  0  0  0  0  0  0  0
    0.0000    0.0000    0.0000 H   0  0  0  0  0  0  0  0  0  0  0  0
    0.0000    0.0000    0.0000 H   0  0  0  0  0  0  0  0  0  0  0  0
    0.0000    0.0000    0.0000 H   0  0  0  0  0  0  0  0  0  0  0  0
    0.0000    0.0000    0.0000 H   0  0  0  0  0  0  0  0  0  0  0  0
    0.0000    0.0000    0.0000 H   0  0  0  0  0  0  0  0  0  0  0  0
    0.0000    0.0000    0.0000 H   0  0  0  0  0  0  0  0  0  0  0  0
    0.0000    0.0000    0.0000 H   0  0  0  0  0  0  0  0  0  0  0  0
    0.0000    0.0000    0.0000 H   0  0  0  0  0  0  0  0  0  0  0  0
    0.0000    0.0000    0.0000 H   0  0  0  0  0  0  0  0  0  0  0  0
    0.0000    0.0000    0.0000 H   0  0  0  0  0  0  0  0  0  0  0  0
    0.0000    0.0000    0.0000 H   0  0  0  0  0  0  0  0  0  0  0  0
    0.0000    0.0000    0.0000 H   0  0  0  0  0  0  0  0  0  0  0  0
    0.0000    0.0000    0.0000 H   0  0  0  0  0  0  0  0  0  0  0  0
    0.0000    0.0000    0.0000 H   0  0  0  0  0  0  0  0  0  0  0  0
    0.0000    0.0000    0.0000 H   0  0  0  0  0  0  0  0  0  0  0  0
    0.0000    0.0000    0.0000 H   0  0  0  0  0  0  0  0  0  0  0  0
    0.0000    0.0000    0.0000 H   0  0  0  0  0  0  0  0  0  0  0  0
    0.0000    0.0000    0.0000 H   0  0  0  0  0  0  0  0  0  0  0  0
    0.0000    0.0000    0.0000 H   0  0  0  0  0  0  0  0  0  0  0  0
    0.0000    0.0000    0.0000 H   0  0  0  0  0  0  0  0  0  0  0  0
    0.0000    0.0000    0.0000 H   0  0  0  0  0  0  0  0  0  0  0  0
    0.0000    0.0000    0.0000 H   0  0  0  0  0  0  0  0  0  0  0  0
    0.0000    0.0000    0.0000 H   0  0  0  0  0  0  0  0  0  0  0  0
    0.0000    0.0000    0.0000 H   0  0  0  0  0  0  0  0  0  0  0  0
    0.0000    0.0000    0.0000 H   0  0  0  0  0  0  0  0  0  0  0  0
    0.0000    0.0000    0.0000 H   0  0  0  0  0  0  0  0  0  0  0  0
    0.0000    0.0000    0.0000 H   0  0  0  0  0  0  0  0  0  0  0  0
    0.0000    0.0000    0.0000 H   0  0  0  0  0  0  0  0  0  0  0  0
    0.0000    0.0000    0.0000 H   0  0  0  0  0  0  0  0  0  0  0  0
    0.0000    0.0000    0.0000 H   0  0  0  0  0  0  0  0  0  0  0  0
    0.0000    0.0000    0.0000 H   0  0  0  0  0  0  0  0  0  0  0  0
    0.0000    0.0000    0.0000 H   0  0  0  0  0  0  0  0  0  0  0  0
    0.0000    0.0000    0.0000 H   0  0  0  0  0  0  0  0  0  0  0  0
    0.0000    0.0000    0.0000 H   0  0  0  0  0  0  0  0  0  0  0  0
    0.0000    0.0000    0.0000 H   0  0  0  0  0  0  0  0  0  0  0  0
    0.0000    0.0000    0.0000 H   0  0  0  0  0  0  0  0  0  0  0  0
    0.0000    0.0000    0.0000 H   0  0  0  0  0  0  0  0  0  0  0  0
    0.0000    0.0000    0.0000 H   0  0  0  0  0  0  0  0  0  0  0  0
    0.0000    0.0000    0.0000 H   0  0  0  0  0  0  0  0  0  0  0  0
    0.0000    0.0000    0.0000 H   0  0  0  0  0  0  0  0  0  0  0  0
    0.0000    0.0000    0.0000 H   0  0  0  0  0  0  0  0  0  0  0  0
    0.0000    0.0000    0.0000 H   0  0  0  0  0  0  0  0  0  0  0  0
    0.0000    0.0000    0.0000 H   0  0  0  0  0  0  0  0  0  0  0  0
    0.0000    0.0000    0.0000 H   0  0  0  0  0  0  0  0  0  0  0  0
    0.0000    0.0000    0.0000 H   0  0  0  0  0  0  0  0  0  0  0  0
    0.0000    0.0000    0.0000 H   0  0  0  0  0  0  0  0  0  0  0  0
    0.0000    0.0000    0.0000 H   0  0  0  0  0  0  0  0  0  0  0  0
    0.0000    0.0000    0.0000 H   0  0  0  0  0  0  0  0  0  0  0  0
    0.0000    0.0000    0.0000 H   0  0  0  0  0  0  0  0  0  0  0  0
  1 22  1  0
  1 23  1  0
  2 22  1  0
  2 24  1  0
 20  3  1  1
 21  4  1  1
  5 26  1  0
  6 29  1  0
  7 44  1  0
  7 53  1  0
  8 32  1  0
  9 33  1  0
 10 36  1  0
 11 40  1  0
 12 42  1  0
 13 43  1  0
 14 40  2  0
 15 41  2  0
 16 47  1  0
 17 53  2  0
 19 18  1  1
 19 20  1  0
 19 21  1  0
 20 22  1  0
 21 23  1  0
 23 28  1  6
 24 25  1  0
 24 31  1  0
 25 26  1  0
 26 27  1  0
 27 29  1  0
 27 40  1  0
 29 30  1  0
 30 41  1  0
 31 49  2  0
 32 33  1  0
 32 34  1  0
 33 37  1  0
 34 35  1  0
 35 36  1  0
 36 39  1  0
 37 41  1  0
 38 43  1  0
 38 44  1  0
 38 48  1  0
 39 42  1  0
 42 45  1  0
 43 46  1  0
 44 51  1  0
 45 47  1  0
 46 52  1  0
 46 54  1  0
 47 50  1  0
 49 55  1  0
 50 53  1  0
 54 56  2  0
 55 57  2  0
 56 58  1  0
 57 59  1  0
 58 60  2  0
 59 62  2  0
 60 61  1  0
 61 63  1  0
 62 64  1  0
 63 65  1  0
 64 65  2  0
  3 66  1  0
  4 67  1  0
  5 68  1  0
  6 69  1  0
  8 70  1  0
  9 71  1  0
 10 72  1  0
 11 73  1  0
 12 74  1  0
 13 75  1  0
 16 76  1  0
 18 77  1  0
 18 78  1  0
 19 79  1  0
 20 80  1  0
 21 81  1  0
 22 82  1  0
 23 83  1  0
 24 84  1  0
 25 85  1  0
 25 86  1  0
 26 87  1  0
 27 88  1  0
 28 89  1  0
 28 90  1  0
 28 91  1  0
 29 92  1  0
 30 93  1  0
 30 94  1  0
 31 95  1  0
 32 96  1  0
 33 97  1  0
 34 98  1  0
 34 99  1  0
 35100  1  0
 35101  1  0
 36102  1  0
 37103  1  0
 37104  1  0
 38105  1  0
 39106  1  0
 39107  1  0
 42108  1  0
 43109  1  0
 44110  1  0
 45111  1  0
 45112  1  0
 46113  1  0
 47114  1  0
 48115  1  0
 48116  1  0
 48117  1  0
 49118  1  0
 50119  1  0
 50120  1  0
 51121  1  0
 51122  1  0
 51123  1  0
 52124  1  0
 52125  1  0
 52126  1  0
 54127  1  0
 55128  1  0
 56129  1  0
 57130  1  0
 58131  1  0
 59132  1  0
 60133  1  0
 61134  1  0
 61135  1  0
 62136  1  0
 63137  1  0
 63138  1  0
 64139  1  0
 65140  1  0
M  END
>  <ALOGPS_LOGP>  (1) 
-2.82

>  <ALOGPS_LOGS>  (1) 
-4.15

>  <ALOGPS_SOLUBILITY>  (1) 
6.60e-02 g/l

>  <DATABASE_ID>  (1) 
DB00646

>  <DATABASE_NAME>  (1) 
drugbank

>  <DRUGBANK_ID>  (1) 
DB00646

>  <DRUG_GROUPS>  (1) 
approved; vet_approved

>  <EXACT_MASS>  (1) 
925.503499979

>  <FORMULA>  (1) 
C47H75NO17

>  <GENERIC_NAME>  (1) 
Nystatin

>  <INCHI_IDENTIFIER>  (1) 
InChI=1S/C47H75NO17/c1-27-17-15-13-11-9-7-5-6-8-10-12-14-16-18-35(65-47-45(60)42(48)44(59)30(4)64-47)26-39(56)41(46(61)62)38(55)24-34(52)23-37(54)36(53)20-19-31(49)21-32(50)22-33(51)25-40(57)63-29(3)28(2)43(27)58/h5-6,8,10-18,27-33,35-39,41-45,47,49-51,53-56,58-60H,7,9,19-26,48H2,1-4H3,(H,61,62)/b6-5+,10-8+,13-11+,14-12+,17-15+,18-16+/t27?,28?,29?,30-,31?,32?,33?,35?,36?,37?,38?,39?,41?,42+,43?,44-,45+,47?/m1/s1

>  <INCHI_KEY>  (1) 
ZDFDJJJGIRGMBE-AFARJNEBSA-N

>  <INTERNATIONAL_BRANDS>  (1) 
Adiclair; Afunginal; Biofanal; Candacide; Candermil; Candex; Candidias; Candistat; Candistin; Canstat; Cazetin; Diaper NZ; Dipni; Enystin; Fukangning; Fungatin; Fungicidin Leciva; Fungistin; Fungostatin; Funistatin; Gynostatin; Kandistatin; Kenalon; Lederlind; Ledernyst; Lystin; Mycostatin; Nilstat; Nyaderm; Nystan

>  <JCHEM_ACCEPTOR_COUNT>  (1) 
17

>  <JCHEM_AVERAGE_POLARIZABILITY>  (1) 
102.10814694575765

>  <JCHEM_BIOAVAILABILITY>  (1) 
0

>  <JCHEM_DONOR_COUNT>  (1) 
12

>  <JCHEM_FORMAL_CHARGE>  (1) 
0

>  <JCHEM_GHOSE_FILTER>  (1) 
0

>  <JCHEM_IUPAC>  (1) 
(21E,23E,25E,27E,31E,33E)-20-{[(3S,4S,5S,6R)-4-amino-3,5-dihydroxy-6-methyloxan-2-yl]oxy}-4,6,8,11,12,16,18,36-octahydroxy-35,37,38-trimethyl-2,14-dioxo-1-oxacyclooctatriaconta-21,23,25,27,31,33-hexaene-17-carboxylic acid

>  <JCHEM_LOGP>  (1) 
-2.666154540022299

>  <JCHEM_MDDR_LIKE_RULE>  (1) 
0

>  <JCHEM_NUMBER_OF_RINGS>  (1) 
2

>  <JCHEM_PHYSIOLOGICAL_CHARGE>  (1) 
0

>  <JCHEM_PKA>  (1) 
12.651951568418127

>  <JCHEM_PKA_STRONGEST_ACIDIC>  (1) 
3.6208467022216593

>  <JCHEM_PKA_STRONGEST_BASIC>  (1) 
9.11381640698386

>  <JCHEM_POLAR_SURFACE_AREA>  (1) 
327.44999999999993

>  <JCHEM_REFRACTIVITY>  (1) 
245.17500000000004

>  <JCHEM_ROTATABLE_BOND_COUNT>  (1) 
3

>  <JCHEM_RULE_OF_FIVE>  (1) 
0

>  <JCHEM_TRADITIONAL_IUPAC>  (1) 
nystatin

>  <JCHEM_VEBER_RULE>  (1) 
0

>  <MOLECULAR_WEIGHT>  (1) 
926.0949

>  <PRODUCTS>  (1) 
Candistatin Topical Powder - 100000 Unit/g; Dom-nystatin Suspension; FIRST Dukes Mouthwash Compounding; FIRST Marys Mouthwash Compounding; Flagystatin; Flagystatin Cream; Flagystatin Vaginal Ovule; Ftp-nystatin; Jamp-nystatin Oral Suspension USP; Kenacomb Cream; Kenacomb Mild Cream; Kenacomb Mild Ointment; Kenacomb Ointment; Kenacomb Ont; Lidecomb Cream; Mecomb Crm 0.1%; Mestatin; Mycostatin Crm 100000unit/gm; Mycostatin Ont 100000iu/gm; Mycostatin Oral Suspension 100000iu; Mycostatin Oral Tab 500000iu; Mycostatin Topical Pwr 100,000units/gm; Mycostatin Vaginal Crm 25000unit; Nadostine Crm 100000iu/gm; Nadostine Ont 100000iu/gm; Nadostine Sus 100000iu/ml; Nadostine Tab 100000unit; Nadostine Tab 500000unit; Nilstat 25000units/g; Nilstat Oral Dps 100000iu/ml; Nilstat Orl Tab 500000unit; Nilstat Sucrose-free; Nilstat Top Crm 100000unit/gm; Nilstat Top Ont 100000unit/gm; Nilstat Vag Crm 100000unit/gm; Nilstat Vag Tab 100000unit; Nyaderm Crm 100000unit/gm; Nyaderm Ont 100000unit/gm; Nyaderm Oral Sus 100000unit/ml USP; Nyaderm Vag Crm 25000unit/gm; Nyamyc; Nyata; Nyata Nystatin Powder; Nystatin; Nystatin Cream; Nystatin and Triamcinolone; Nystatin and Triamcinolone Acetonide; Nystop; PHL-nystatin Suspension 100000 Unit/ml; PMS-nystatin Suspension 100000 Unit/ml; Ratio-nystatin; Ratio-triacomb; Theraderm Cream; Viaderm Kc Crm; Viaderm Kc Ont

>  <SALTS>  (1) 
Nystatin dihydrate

>  <SECONDARY_ACCESSION_NUMBERS>  (1) 
APRD01146

>  <SMILES>  (1) 
C[C@H]1OC(OC2CC(O)C(C(O)CC(=O)CC(O)C(O)CCC(O)CC(O)CC(O)CC(=O)OC(C)C(C)C(O)C(C)\C=C\C=C\CC\C=C\C=C\C=C\C=C\2)C(O)=O)[C@@H](O)[C@@H](N)[C@@H]1O

>  <SYNONYMS>  (1) 
Nistatina; NYS; Nystatin; Nystatine; Nystatinum

$$$$
