143
     RDKit          2D

 37 36  0  0  1  0  0  0  0  0999 V2000
    6.3799   -1.1096    0.0000 S   0  0  0  0  0  0  0  0  0  0  0  0
    5.6655   -0.6971    0.0000 O   0  0  0  0  0  0  0  0  0  0  0  0
    7.8089    1.3654    0.0000 O   0  0  0  0  0  0  0  0  0  0  0  0
    2.0930    0.5404    0.0000 O   0  0  0  0  0  0  0  0  0  0  0  0
    2.8075   -0.6971    0.0000 O   0  0  0  0  0  0  0  0  0  0  0  0
   10.6668    0.5404    0.0000 O   0  0  0  0  0  0  0  0  0  0  0  0
    9.9524   -0.6971    0.0000 O   0  0  0  0  0  0  0  0  0  0  0  0
    6.3799    0.5404    0.0000 N   0  0  0  0  0  0  0  0  0  0  0  0
    3.5220    1.3654    0.0000 N   0  0  0  0  0  0  0  0  0  0  0  0
    8.5234    0.1279    0.0000 N   0  0  0  0  0  0  0  0  0  0  0  0
    4.2365    0.1279    0.0000 C   0  0  0  0  0  0  0  0  0  0  0  0
    4.9509    0.5404    0.0000 C   0  0  0  0  0  0  0  0  0  0  0  0
    7.0944    0.1279    0.0000 C   0  0  0  0  0  0  0  0  0  0  0  0
    3.5220    0.5404    0.0000 C   0  0  0  0  0  0  0  0  0  0  0  0
    5.6655    0.1279    0.0000 C   0  0  0  0  0  0  0  0  0  0  0  0
    7.0944   -0.6971    0.0000 C   0  0  0  0  0  0  0  0  0  0  0  0
    7.8089    0.5404    0.0000 C   0  0  0  0  0  0  0  0  0  0  0  0
    2.8075    0.1279    0.0000 C   0  0  0  0  0  0  0  0  0  0  0  0
    9.2379    0.5404    0.0000 C   0  0  0  0  0  0  0  0  0  0  0  0
    9.9524    0.1279    0.0000 C   0  0  0  0  0  0  0  0  0  0  0  0
    0.0000    0.0000    0.0000 H   0  0  0  0  0  0  0  0  0  0  0  0
    0.0000    0.0000    0.0000 H   0  0  0  0  0  0  0  0  0  0  0  0
    0.0000    0.0000    0.0000 H   0  0  0  0  0  0  0  0  0  0  0  0
    0.0000    0.0000    0.0000 H   0  0  0  0  0  0  0  0  0  0  0  0
    0.0000    0.0000    0.0000 H   0  0  0  0  0  0  0  0  0  0  0  0
    0.0000    0.0000    0.0000 H   0  0  0  0  0  0  0  0  0  0  0  0
    0.0000    0.0000    0.0000 H   0  0  0  0  0  0  0  0  0  0  0  0
    0.0000    0.0000    0.0000 H   0  0  0  0  0  0  0  0  0  0  0  0
    0.0000    0.0000    0.0000 H   0  0  0  0  0  0  0  0  0  0  0  0
    0.0000    0.0000    0.0000 H   0  0  0  0  0  0  0  0  0  0  0  0
    0.0000    0.0000    0.0000 H   0  0  0  0  0  0  0  0  0  0  0  0
    0.0000    0.0000    0.0000 H   0  0  0  0  0  0  0  0  0  0  0  0
    0.0000    0.0000    0.0000 H   0  0  0  0  0  0  0  0  0  0  0  0
    0.0000    0.0000    0.0000 H   0  0  0  0  0  0  0  0  0  0  0  0
    0.0000    0.0000    0.0000 H   0  0  0  0  0  0  0  0  0  0  0  0
    0.0000    0.0000    0.0000 H   0  0  0  0  0  0  0  0  0  0  0  0
    0.0000    0.0000    0.0000 H   0  0  0  0  0  0  0  0  0  0  0  0
  1 16  1  0
  2 15  2  0
  3 17  2  0
  4 18  1  0
  5 18  2  0
  6 20  1  0
  7 20  2  0
 13  8  1  6
  8 15  1  0
 14  9  1  1
 10 17  1  0
 10 19  1  0
 11 12  1  0
 11 14  1  0
 12 15  1  0
 13 16  1  0
 13 17  1  0
 14 18  1  0
 19 20  1  0
  1 21  1  0
  4 22  1  0
  6 23  1  0
  8 24  1  0
  9 25  1  0
  9 26  1  0
 10 27  1  0
 11 28  1  0
 11 29  1  0
 12 30  1  0
 12 31  1  0
 13 32  1  0
 14 33  1  0
 16 34  1  0
 16 35  1  0
 19 36  1  0
 19 37  1  0
M  END
>  <ALOGPS_LOGP>  (1) 
-2.74

>  <ALOGPS_LOGS>  (1) 
-2.54

>  <ALOGPS_SOLUBILITY>  (1) 
8.79e-01 g/l

>  <DATABASE_ID>  (1) 
DB00143

>  <DATABASE_NAME>  (1) 
drugbank

>  <DRUGBANK_ID>  (1) 
DB00143

>  <DRUG_GROUPS>  (1) 
approved; investigational; nutraceutical

>  <EXACT_MASS>  (1) 
307.083805981

>  <FORMULA>  (1) 
C10H17N3O6S

>  <GENERIC_NAME>  (1) 
Glutathione

>  <INCHI_IDENTIFIER>  (1) 
InChI=1S/C10H17N3O6S/c11-5(10(18)19)1-2-7(14)13-6(4-20)9(17)12-3-8(15)16/h5-6,20H,1-4,11H2,(H,12,17)(H,13,14)(H,15,16)(H,18,19)/t5-,6-/m0/s1

>  <INCHI_KEY>  (1) 
RWSXRVCMGQZWBV-WDSKDSINSA-N

>  <INTERNATIONAL_BRANDS>  (1) 
Isethion

>  <JCHEM_ACCEPTOR_COUNT>  (1) 
7

>  <JCHEM_AVERAGE_POLARIZABILITY>  (1) 
29.112831939770334

>  <JCHEM_BIOAVAILABILITY>  (1) 
1

>  <JCHEM_DONOR_COUNT>  (1) 
6

>  <JCHEM_FORMAL_CHARGE>  (1) 
0

>  <JCHEM_GHOSE_FILTER>  (1) 
0

>  <JCHEM_IUPAC>  (1) 
(2S)-2-amino-4-{[(1R)-1-[(carboxymethyl)carbamoyl]-2-sulfanylethyl]carbamoyl}butanoic acid

>  <JCHEM_LOGP>  (1) 
-4.884693972571516

>  <JCHEM_MDDR_LIKE_RULE>  (1) 
0

>  <JCHEM_NUMBER_OF_RINGS>  (1) 
0

>  <JCHEM_PHYSIOLOGICAL_CHARGE>  (1) 
-1

>  <JCHEM_PKA>  (1) 
3.7373139999664193

>  <JCHEM_PKA_STRONGEST_ACIDIC>  (1) 
1.9366094710123818

>  <JCHEM_PKA_STRONGEST_BASIC>  (1) 
9.223740958328674

>  <JCHEM_POLAR_SURFACE_AREA>  (1) 
158.82000000000002

>  <JCHEM_REFRACTIVITY>  (1) 
69.11490000000002

>  <JCHEM_ROTATABLE_BOND_COUNT>  (1) 
9

>  <JCHEM_RULE_OF_FIVE>  (1) 
0

>  <JCHEM_TRADITIONAL_IUPAC>  (1) 
glutathione

>  <JCHEM_VEBER_RULE>  (1) 
0

>  <MOLECULAR_WEIGHT>  (1) 
307.323

>  <PRODUCTS>  (1) 
Bss Plus

>  <SECONDARY_ACCESSION_NUMBERS>  (1) 
NUTR00029; EXPT01650

>  <SMILES>  (1) 
N[C@@H](CCC(=O)N[C@@H](CS)C(=O)NCC(O)=O)C(O)=O

>  <SYNONYMS>  (1) 
5-L-Glutamyl-L-cysteinylglycine; gamma-L-Glutamyl-L-cysteinyl-glycine; Glutathione-SH; GSH; N-(N-gamma-L-Glutamyl-L-cysteinyl)glycine

$$$$
