139
     RDKit          2D

 14 13  0  0  0  0  0  0  0  0999 V2000
    2.0928    0.2063    0.0000 O   0  0  0  0  0  0  0  0  0  0  0  0
    5.6650   -0.2063    0.0000 O   0  0  0  0  0  0  0  0  0  0  0  0
    2.8072   -1.0312    0.0000 O   0  0  0  0  0  0  0  0  0  0  0  0
    4.9504    1.0312    0.0000 O   0  0  0  0  0  0  0  0  0  0  0  0
    3.5217    0.2063    0.0000 C   0  0  0  0  0  0  0  0  0  0  0  0
    4.2361   -0.2063    0.0000 C   0  0  0  0  0  0  0  0  0  0  0  0
    2.8072   -0.2063    0.0000 C   0  0  0  0  0  0  0  0  0  0  0  0
    4.9504    0.2063    0.0000 C   0  0  0  0  0  0  0  0  0  0  0  0
    0.0000    0.0000    0.0000 H   0  0  0  0  0  0  0  0  0  0  0  0
    0.0000    0.0000    0.0000 H   0  0  0  0  0  0  0  0  0  0  0  0
    0.0000    0.0000    0.0000 H   0  0  0  0  0  0  0  0  0  0  0  0
    0.0000    0.0000    0.0000 H   0  0  0  0  0  0  0  0  0  0  0  0
    0.0000    0.0000    0.0000 H   0  0  0  0  0  0  0  0  0  0  0  0
    0.0000    0.0000    0.0000 H   0  0  0  0  0  0  0  0  0  0  0  0
  1  7  1  0
  2  8  1  0
  3  7  2  0
  4  8  2  0
  5  6  1  0
  5  7  1  0
  6  8  1  0
  1  9  1  0
  2 10  1  0
  5 11  1  0
  5 12  1  0
  6 13  1  0
  6 14  1  0
M  END
>  <ALOGPS_LOGP>  (1) 
-0.53

>  <ALOGPS_LOGS>  (1) 
0.25

>  <ALOGPS_SOLUBILITY>  (1) 
2.11e+02 g/l

>  <DATABASE_ID>  (1) 
DB00139

>  <DATABASE_NAME>  (1) 
drugbank

>  <DRUGBANK_ID>  (1) 
DB00139

>  <DRUG_GROUPS>  (1) 
approved; nutraceutical

>  <EXACT_MASS>  (1) 
118.02660868

>  <FORMULA>  (1) 
C4H6O4

>  <GENERIC_NAME>  (1) 
Succinic acid

>  <INCHI_IDENTIFIER>  (1) 
InChI=1S/C4H6O4/c5-3(6)1-2-4(7)8/h1-2H2,(H,5,6)(H,7,8)

>  <INCHI_KEY>  (1) 
KDYFGRWQOYBRFD-UHFFFAOYSA-N

>  <JCHEM_ACCEPTOR_COUNT>  (1) 
4

>  <JCHEM_AVERAGE_POLARIZABILITY>  (1) 
10.141334051490274

>  <JCHEM_BIOAVAILABILITY>  (1) 
1

>  <JCHEM_DONOR_COUNT>  (1) 
2

>  <JCHEM_FORMAL_CHARGE>  (1) 
0

>  <JCHEM_GHOSE_FILTER>  (1) 
0

>  <JCHEM_IUPAC>  (1) 
butanedioic acid

>  <JCHEM_LOGP>  (1) 
-0.3984829673333332

>  <JCHEM_MDDR_LIKE_RULE>  (1) 
0

>  <JCHEM_NUMBER_OF_RINGS>  (1) 
0

>  <JCHEM_PHYSIOLOGICAL_CHARGE>  (1) 
-2

>  <JCHEM_PKA>  (1) 
5.6869121792916

>  <JCHEM_PKA_STRONGEST_ACIDIC>  (1) 
3.554166510976347

>  <JCHEM_POLAR_SURFACE_AREA>  (1) 
74.6

>  <JCHEM_REFRACTIVITY>  (1) 
23.537

>  <JCHEM_ROTATABLE_BOND_COUNT>  (1) 
3

>  <JCHEM_RULE_OF_FIVE>  (1) 
1

>  <JCHEM_TRADITIONAL_IUPAC>  (1) 
succinic acid

>  <JCHEM_VEBER_RULE>  (1) 
0

>  <MOLECULAR_WEIGHT>  (1) 
118.088

>  <PRODUCTS>  (1) 
Niferex

>  <SECONDARY_ACCESSION_NUMBERS>  (1) 
NUTR00054

>  <SMILES>  (1) 
OC(=O)CCC(O)=O

>  <SYNONYMS>  (1) 
1,2-Ethanedicarboxylic acid; Amber acid; Asuccin; Bernsteinsaure; Butanedioic acid; Butanedionic acid; Spirit of amber

$$$$
