521
     RDKit          2D

 45 46  0  0  1  0  0  0  0  0999 V2000
    4.5214    0.3034    0.0000 O   0  0  0  0  0  0  0  0  0  0  0  0
    4.5023   -1.3466    0.0000 O   0  0  0  0  0  0  0  0  0  0  0  0
    1.6500    2.8069    0.0000 O   0  0  0  0  0  0  0  0  0  0  0  0
    5.9216   -2.1880    0.0000 N   0  0  0  0  0  0  0  0  0  0  0  0
    3.0790    2.8069    0.0000 N   0  0  0  0  0  0  0  0  0  0  0  0
    6.6313   -2.6087    0.0000 C   0  0  0  0  0  0  0  0  0  0  0  0
    5.9312   -1.3631    0.0000 C   0  0  0  0  0  0  0  0  0  0  0  0
    5.2215   -0.9423    0.0000 C   0  0  0  0  0  0  0  0  0  0  0  0
    7.3409   -3.0295    0.0000 C   0  0  0  0  0  0  0  0  0  0  0  0
    6.2105   -3.3184    0.0000 C   0  0  0  0  0  0  0  0  0  0  0  0
    7.0520   -1.8991    0.0000 C   0  0  0  0  0  0  0  0  0  0  0  0
    3.7934    1.5694    0.0000 C   0  0  0  0  0  0  0  0  0  0  0  0
    5.2310   -0.1174    0.0000 C   0  0  0  0  0  0  0  0  0  0  0  0
    3.0790    1.1569    0.0000 C   0  0  0  0  0  0  0  0  0  0  0  0
    4.5309    1.1283    0.0000 C   0  0  0  0  0  0  0  0  0  0  0  0
    3.7934    2.3944    0.0000 C   0  0  0  0  0  0  0  0  0  0  0  0
    2.3645    1.5694    0.0000 C   0  0  0  0  0  0  0  0  0  0  0  0
    2.3645    2.3944    0.0000 C   0  0  0  0  0  0  0  0  0  0  0  0
    5.2784    1.5522    0.0000 C   0  0  0  0  0  0  0  0  0  0  0  0
    4.5309    2.8355    0.0000 C   0  0  0  0  0  0  0  0  0  0  0  0
    5.2784    2.4116    0.0000 C   0  0  0  0  0  0  0  0  0  0  0  0
    0.0000    0.0000    0.0000 H   0  0  0  0  0  0  0  0  0  0  0  0
    0.0000    0.0000    0.0000 H   0  0  0  0  0  0  0  0  0  0  0  0
    0.0000    0.0000    0.0000 H   0  0  0  0  0  0  0  0  0  0  0  0
    0.0000    0.0000    0.0000 H   0  0  0  0  0  0  0  0  0  0  0  0
    0.0000    0.0000    0.0000 H   0  0  0  0  0  0  0  0  0  0  0  0
    0.0000    0.0000    0.0000 H   0  0  0  0  0  0  0  0  0  0  0  0
    0.0000    0.0000    0.0000 H   0  0  0  0  0  0  0  0  0  0  0  0
    0.0000    0.0000    0.0000 H   0  0  0  0  0  0  0  0  0  0  0  0
    0.0000    0.0000    0.0000 H   0  0  0  0  0  0  0  0  0  0  0  0
    0.0000    0.0000    0.0000 H   0  0  0  0  0  0  0  0  0  0  0  0
    0.0000    0.0000    0.0000 H   0  0  0  0  0  0  0  0  0  0  0  0
    0.0000    0.0000    0.0000 H   0  0  0  0  0  0  0  0  0  0  0  0
    0.0000    0.0000    0.0000 H   0  0  0  0  0  0  0  0  0  0  0  0
    0.0000    0.0000    0.0000 H   0  0  0  0  0  0  0  0  0  0  0  0
    0.0000    0.0000    0.0000 H   0  0  0  0  0  0  0  0  0  0  0  0
    0.0000    0.0000    0.0000 H   0  0  0  0  0  0  0  0  0  0  0  0
    0.0000    0.0000    0.0000 H   0  0  0  0  0  0  0  0  0  0  0  0
    0.0000    0.0000    0.0000 H   0  0  0  0  0  0  0  0  0  0  0  0
    0.0000    0.0000    0.0000 H   0  0  0  0  0  0  0  0  0  0  0  0
    0.0000    0.0000    0.0000 H   0  0  0  0  0  0  0  0  0  0  0  0
    0.0000    0.0000    0.0000 H   0  0  0  0  0  0  0  0  0  0  0  0
    0.0000    0.0000    0.0000 H   0  0  0  0  0  0  0  0  0  0  0  0
    0.0000    0.0000    0.0000 H   0  0  0  0  0  0  0  0  0  0  0  0
    0.0000    0.0000    0.0000 H   0  0  0  0  0  0  0  0  0  0  0  0
  1 13  1  0
  1 15  1  0
  2  8  1  0
  3 18  2  0
  4  6  1  0
  4  7  1  0
  5 16  1  0
  5 18  1  0
  6  9  1  0
  6 10  1  0
  6 11  1  0
  7  8  1  0
  8 13  1  0
 12 14  1  0
 12 15  2  0
 12 16  1  0
 14 17  1  0
 15 19  1  0
 16 20  2  0
 17 18  1  0
 19 21  2  0
 20 21  1  0
  2 22  1  0
  4 23  1  0
  5 24  1  0
  7 25  1  0
  7 26  1  0
  8 27  1  0
  9 28  1  0
  9 29  1  0
  9 30  1  0
 10 31  1  0
 10 32  1  0
 10 33  1  0
 11 34  1  0
 11 35  1  0
 11 36  1  0
 13 37  1  0
 13 38  1  0
 14 39  1  0
 14 40  1  0
 17 41  1  0
 17 42  1  0
 19 43  1  0
 20 44  1  0
 21 45  1  0
M  END
>  <ALOGPS_LOGP>  (1) 
1.05

>  <ALOGPS_LOGS>  (1) 
-2.84

>  <ALOGPS_SOLUBILITY>  (1) 
4.21e-01 g/l

>  <DATABASE_ID>  (1) 
DB00521

>  <DATABASE_NAME>  (1) 
drugbank

>  <DRUGBANK_ID>  (1) 
DB00521

>  <DRUG_GROUPS>  (1) 
approved

>  <EXACT_MASS>  (1) 
292.178692644

>  <FORMULA>  (1) 
C16H24N2O3

>  <GENERIC_NAME>  (1) 
Carteolol

>  <INCHI_IDENTIFIER>  (1) 
InChI=1S/C16H24N2O3/c1-16(2,3)17-9-11(19)10-21-14-6-4-5-13-12(14)7-8-15(20)18-13/h4-6,11,17,19H,7-10H2,1-3H3,(H,18,20)

>  <INCHI_KEY>  (1) 
LWAFSWPYPHEXKX-UHFFFAOYSA-N

>  <INTERNATIONAL_BRANDS>  (1) 
Endak; Ocupress

>  <JCHEM_ACCEPTOR_COUNT>  (1) 
4

>  <JCHEM_AVERAGE_POLARIZABILITY>  (1) 
32.789724060000694

>  <JCHEM_BIOAVAILABILITY>  (1) 
1

>  <JCHEM_DONOR_COUNT>  (1) 
3

>  <JCHEM_FORMAL_CHARGE>  (1) 
0

>  <JCHEM_GHOSE_FILTER>  (1) 
1

>  <JCHEM_IUPAC>  (1) 
5-[3-(tert-butylamino)-2-hydroxypropoxy]-1,2,3,4-tetrahydroquinolin-2-one

>  <JCHEM_LOGP>  (1) 
1.4181688770000005

>  <JCHEM_MDDR_LIKE_RULE>  (1) 
0

>  <JCHEM_NUMBER_OF_RINGS>  (1) 
2

>  <JCHEM_PHYSIOLOGICAL_CHARGE>  (1) 
1

>  <JCHEM_PKA>  (1) 
14.18959422301824

>  <JCHEM_PKA_STRONGEST_ACIDIC>  (1) 
13.408521242479178

>  <JCHEM_PKA_STRONGEST_BASIC>  (1) 
9.75944617220637

>  <JCHEM_POLAR_SURFACE_AREA>  (1) 
70.59

>  <JCHEM_REFRACTIVITY>  (1) 
83.14160000000003

>  <JCHEM_ROTATABLE_BOND_COUNT>  (1) 
6

>  <JCHEM_RULE_OF_FIVE>  (1) 
1

>  <JCHEM_TRADITIONAL_IUPAC>  (1) 
carteolol

>  <JCHEM_VEBER_RULE>  (1) 
0

>  <MOLECULAR_WEIGHT>  (1) 
292.3734

>  <PRODUCTS>  (1) 
Carteolol Hydrochloride

>  <SALTS>  (1) 
Carteolol Hydrochloride

>  <SECONDARY_ACCESSION_NUMBERS>  (1) 
APRD00195

>  <SMILES>  (1) 
CC(C)(C)NCC(O)COC1=CC=CC2=C1CCC(=O)N2

>  <SYNONYMS>  (1) 
Carteololum

$$$$
