
     RDKit          2D

 13 12  0  0  0  0  0  0  0  0999 V2000
    1.8187    0.2250    0.0000 C   0  0  0  0  0  0  0  0  0  0  0  0
    1.1042   -0.1875    0.0000 C   0  0  0  0  0  0  0  0  0  0  0  0
    2.5331   -0.1875    0.0000 O   0  0  0  0  0  0  0  0  0  0  0  0
    1.8187    1.0500    0.0000 O   0  0  0  0  0  0  0  0  0  0  0  0
    1.1042   -1.0125    0.0000 N   0  0  0  0  0  0  0  0  0  0  0  0
    0.3897    0.2250    0.0000 C   0  0  0  0  0  0  0  0  0  0  0  0
    0.0000    0.0000    0.0000 H   0  0  0  0  0  0  0  0  0  0  0  0
    0.0000    0.0000    0.0000 H   0  0  0  0  0  0  0  0  0  0  0  0
    0.0000    0.0000    0.0000 H   0  0  0  0  0  0  0  0  0  0  0  0
    0.0000    0.0000    0.0000 H   0  0  0  0  0  0  0  0  0  0  0  0
    0.0000    0.0000    0.0000 H   0  0  0  0  0  0  0  0  0  0  0  0
    0.0000    0.0000    0.0000 H   0  0  0  0  0  0  0  0  0  0  0  0
    0.0000    0.0000    0.0000 H   0  0  0  0  0  0  0  0  0  0  0  0
  2  1  1  6
  4  1  2  0
  3  1  1  0
  2  6  1  0
  2  5  1  0
  2  7  1  0
  3  8  1  0
  5  9  1  0
  5 10  1  0
  6 11  1  0
  6 12  1  0
  6 13  1  0
M  END
>  <ALOGPS_LOGP>  (1) 
-3.05

>  <ALOGPS_LOGS>  (1) 
0.70

>  <ALOGPS_SOLUBILITY>  (1) 
4.47e+02 g/l

>  <DATABASE_ID>  (1) 
DB00160

>  <DATABASE_NAME>  (1) 
drugbank

>  <DRUGBANK_ID>  (1) 
DB00160

>  <DRUG_GROUPS>  (1) 
approved; nutraceutical

>  <EXACT_MASS>  (1) 
89.047678473

>  <FORMULA>  (1) 
C3H7NO2

>  <GENERIC_NAME>  (1) 
L-Alanine

>  <INCHI_IDENTIFIER>  (1) 
InChI=1S/C3H7NO2/c1-2(4)3(5)6/h2H,4H2,1H3,(H,5,6)/t2-/m0/s1

>  <INCHI_KEY>  (1) 
QNAYBMKLOCPYGJ-REOHCLBHSA-N

>  <JCHEM_ACCEPTOR_COUNT>  (1) 
3

>  <JCHEM_AVERAGE_POLARIZABILITY>  (1) 
8.487233835110636

>  <JCHEM_BIOAVAILABILITY>  (1) 
1

>  <JCHEM_DONOR_COUNT>  (1) 
2

>  <JCHEM_FORMAL_CHARGE>  (1) 
0

>  <JCHEM_GHOSE_FILTER>  (1) 
0

>  <JCHEM_IUPAC>  (1) 
(2S)-2-aminopropanoic acid

>  <JCHEM_LOGP>  (1) 
-2.840787909732942

>  <JCHEM_MDDR_LIKE_RULE>  (1) 
0

>  <JCHEM_NUMBER_OF_RINGS>  (1) 
0

>  <JCHEM_PHYSIOLOGICAL_CHARGE>  (1) 
0

>  <JCHEM_PKA_STRONGEST_ACIDIC>  (1) 
2.474897471379417

>  <JCHEM_PKA_STRONGEST_BASIC>  (1) 
9.476905287351833

>  <JCHEM_POLAR_SURFACE_AREA>  (1) 
63.31999999999999

>  <JCHEM_REFRACTIVITY>  (1) 
20.4973

>  <JCHEM_ROTATABLE_BOND_COUNT>  (1) 
1

>  <JCHEM_RULE_OF_FIVE>  (1) 
1

>  <JCHEM_TRADITIONAL_IUPAC>  (1) 
L-alanine

>  <JCHEM_VEBER_RULE>  (1) 
0

>  <MOLECULAR_WEIGHT>  (1) 
89.0932

>  <PRODUCTS>  (1) 
2.5% Travasol Amino Acid Injection With Electrolytes In 10% Dextrose; 2.5% Travasol Amino Acid Injection With Electrolytes In 10% Dextrose Clinimix; 2.5% Travasol Amino Acid Injection Without Electrolytes In 10% Dextrose Quickmix; 2.5%travasol Amino Acid InJ.W.eleC.W.25%dex; 2.75% Travas. Amino Acid InJ.W.elecw.25%dex; 2.75% Travasol Amino Acid Injection With Electrolytes In 25% Dextrose Quickmix; 2.75% Travasol Amino Acid Injection With Electrolytes In 5% Dextrose Quickmix; 2.75%travasol Amino Acid InJ.W.eleC.W.5%dex.; 4.25% Amino Acid Injection Without Electrolytes In 20% Dextrose Quickmix; 4.25% Travasol Amino Acid Injection With Electrolytes In 10% Dextrose; 4.25% Travasol Amino Acid Injection With Electrolytes In 20% Dextrose; 4.25% Travasol Amino Acid Injection With Electrolytes In 20% Dextrose Quickmix; 4.25% Travasol Amino Acid Injection With Electrolytes In 25% Dextrose; 4.25% Travasol Amino Acid Injection With Electrolytes In 5% Dextrose Quickmix; 4.25% Travasol Amino Acid Injection Without Electrlytes In 10% Dextrose; 4.25% Travasol Amino Acid Injection Without Electrolytes In 20% Dextrose; 4.25% Travasol Amino Acid Injection Without Electrolytes In 25% Dextrose; 4.25% Travasol Amino Acid Without Electrolytes In 5% Dextrose Quickmix; 4.25%trav. Amino Acid InJ.W.O.elect.5%dext.; 4.25%travasol Amino Acid InJ.W.elecw.5%dex.; 5% Travasol Amino Acid Injection With Electrolytes In 20% Dextrose; 5% Travasol Amino Acid Injection Without Electrolytes In 20% Dextrose; 5% Travasol Amino Acid Injection Without Electrolytes In 25% Dextrose; Aminosyn; Aminosyn 10%; Aminosyn 10% W Electrolytes; Aminosyn 3.5% M; Aminosyn 5%; Aminosyn 7%; Aminosyn 8.5%; Aminosyn 8.5% Injection With Electrolytes; Aminosyn II; Aminosyn II 10%; Aminosyn II 10% With Electrolytes; Aminosyn II 15%; Aminosyn II 5% Inj; Aminosyn II 7% Injection; Aminosyn II 7% M In 10% Dextrose(dual Chamber); Aminosyn II 7% With 10% Dextrose; Aminosyn II 7% With 50% Dextrose; Aminosyn II 8.5% Injection; Aminosyn II 8.5% M In 20% Dextrose (dual Chamber); Aminosyn II 8.5% With 50% Dextrose; Aminosyn II In Dextrose Injection; Aminosyn II with Electrolytes; Aminosyn Sulfite Free; Aminosyn-PF; Aminosyn-PF 10%; Aminosyn-PF 7%; Clinimix; Clinimix 2.5% Travasol Aa Without Electrolytes In 10% Dextrose Injec; Clinimix E; Clinisol; FreAmine HBC; FreAmine III; HepatAmine; Novamine; Olimel 3.3% E; Olimel 4.4%; Olimel 4.4% E; Olimel 5.7%; Olimel 5.7% E; Periolimel 2.5% E; Plenamine; Premasol - sulfite-free (Amino Acid); Primene 10%; Primene 10%-liq IV; ProSol; Quick Mix 2.5% Travasol Aa With Electrolytes With 25% Dextrose Injec; Renamin (amino Acids) Injection; Travasol; Travasol Amino Acid Inj 5.5%; Travasol Amino Acid Inj 8.5%; Travasol E; Travasol Inj Without Electrolytes 5.5%; TrophAmine; Vamin 18 Electrolyte-free; Vamin N

>  <SECONDARY_ACCESSION_NUMBERS>  (1) 
NUTR00013

>  <SMILES>  (1) 
C[C@H](N)C(O)=O

>  <SYNONYMS>  (1) 
(2S)-2-aminopropanoic acid; (S)-2-aminopropanoic acid; (S)-alanine; Alanine; L-2-Aminopropionic acid; L-Alanin; L-alpha-Alanine; L-Î±-alanine

$$$$
