 
     RDKit          2D

 25 24  0  0  0  0  0  0  0  0999 V2000
   11.6665   -8.0871    0.0000 C   0  0  0  0  0  0  0  0  0  0  0  0
   12.2499   -8.6704    0.0000 C   0  0  0  0  0  0  0  0  0  0  0  0
   12.8332   -8.0871    0.0000 C   0  0  0  0  0  0  0  0  0  0  0  0
   12.2499   -7.5037    0.0000 C   0  0  0  0  0  0  0  0  0  0  0  0
   11.5336   -6.2661    0.0000 O   0  0  0  0  0  0  0  0  0  0  0  0
   11.5336   -7.0912    0.0000 C   0  0  0  0  0  0  0  0  0  0  0  0
   12.9619   -7.0912    0.0000 C   0  0  0  0  0  0  0  0  0  0  0  0
   12.9619   -6.2661    0.0000 O   0  0  0  0  0  0  0  0  0  0  0  0
   12.2086   -5.6886    0.0000 Pt  0  0  0  0  0  0  0  0  0  0  0  0
   10.8192   -7.5040    0.0000 O   0  0  0  0  0  0  0  0  0  0  0  0
   13.6768   -7.5031    0.0000 O   0  0  0  0  0  0  0  0  0  0  0  0
   14.9088   -6.4744    0.0000 N   0  0  0  0  0  0  0  0  0  0  0  0
   14.9505   -8.0578    0.0000 N   0  0  0  0  0  0  0  0  0  0  0  0
    0.0000    0.0000    0.0000 H   0  0  0  0  0  0  0  0  0  0  0  0
    0.0000    0.0000    0.0000 H   0  0  0  0  0  0  0  0  0  0  0  0
    0.0000    0.0000    0.0000 H   0  0  0  0  0  0  0  0  0  0  0  0
    0.0000    0.0000    0.0000 H   0  0  0  0  0  0  0  0  0  0  0  0
    0.0000    0.0000    0.0000 H   0  0  0  0  0  0  0  0  0  0  0  0
    0.0000    0.0000    0.0000 H   0  0  0  0  0  0  0  0  0  0  0  0
    0.0000    0.0000    0.0000 H   0  0  0  0  0  0  0  0  0  0  0  0
    0.0000    0.0000    0.0000 H   0  0  0  0  0  0  0  0  0  0  0  0
    0.0000    0.0000    0.0000 H   0  0  0  0  0  0  0  0  0  0  0  0
    0.0000    0.0000    0.0000 H   0  0  0  0  0  0  0  0  0  0  0  0
    0.0000    0.0000    0.0000 H   0  0  0  0  0  0  0  0  0  0  0  0
    0.0000    0.0000    0.0000 H   0  0  0  0  0  0  0  0  0  0  0  0
  1  2  1  0
  2  3  1  0
  5  6  1  0
  6  4  1  0
  4  7  1  0
  7  8  1  0
  8  9  1  0
  9  5  1  0
  3  4  1  0
  6 10  2  0
  4  1  1  0
  7 11  2  0
  1 14  1  0
  1 15  1  0
  2 16  1  0
  2 17  1  0
  3 18  1  0
  3 19  1  0
 12 20  1  0
 12 21  1  0
 12 22  1  0
 13 23  1  0
 13 24  1  0
 13 25  1  0
M  END
>  <DATABASE_ID>  (1) 
DB00958

>  <DATABASE_NAME>  (1) 
drugbank

>  <DRUGBANK_ID>  (1) 
DB00958

>  <DRUG_GROUPS>  (1) 
approved

>  <EXACT_MASS>  (1) 
371.044481331

>  <FORMULA>  (1) 
C6H12N2O4Pt

>  <GENERIC_NAME>  (1) 
Carboplatin

>  <INCHI_IDENTIFIER>  (1) 
InChI=1S/C6H8O4.2H3N.Pt/c7-4(8)6(5(9)10)2-1-3-6;;;/h1-3H2,(H,7,8)(H,9,10);2*1H3;/q;;;+2/p-2

>  <INCHI_KEY>  (1) 
OLESAACUTLOWQZ-UHFFFAOYSA-L

>  <JCHEM_ACCEPTOR_COUNT>  (1) 
2

>  <JCHEM_AVERAGE_POLARIZABILITY>  (1) 
14.055097888564017

>  <JCHEM_BIOAVAILABILITY>  (1) 
1

>  <JCHEM_DONOR_COUNT>  (1) 
0

>  <JCHEM_FORMAL_CHARGE>  (1) 
0

>  <JCHEM_GHOSE_FILTER>  (1) 
0

>  <JCHEM_IUPAC>  (1) 
6,8-dioxa-7-platinaspiro[3.5]nonane-5,9-dione diamine

>  <JCHEM_LOGP>  (1) 
1.0637

>  <JCHEM_MDDR_LIKE_RULE>  (1) 
0

>  <JCHEM_NUMBER_OF_RINGS>  (1) 
2

>  <JCHEM_PHYSIOLOGICAL_CHARGE>  (1) 
0

>  <JCHEM_PKA_STRONGEST_BASIC>  (1) 
-6.640943692954232

>  <JCHEM_POLAR_SURFACE_AREA>  (1) 
52.6

>  <JCHEM_REFRACTIVITY>  (1) 
29.006900000000005

>  <JCHEM_ROTATABLE_BOND_COUNT>  (1) 
0

>  <JCHEM_RULE_OF_FIVE>  (1) 
1

>  <JCHEM_TRADITIONAL_IUPAC>  (1) 
6,8-dioxa-7-platinaspiro[3.5]nonane-5,9-dione diamine

>  <JCHEM_VEBER_RULE>  (1) 
0

>  <MOLECULAR_WEIGHT>  (1) 
371.254

>  <PRODUCTS>  (1) 
CARBOplatin; Carboplatin; Carboplatin Injection; Carboplatin Injection BP; Carboplatin Injection Liq 10mg/ml; Carboplatin Injection, BP; Paraplatin Inj 150mg/vial; Paraplatin-AQ Inj 10mg/ml

>  <SECONDARY_ACCESSION_NUMBERS>  (1) 
APRD00466

>  <SMILES>  (1) 
N.N.O=C1O[Pt]OC(=O)C11CCC1

>  <SYNONYMS>  (1) 
CBDCA; cis-Diammine(1,1-cyclobutanedicarboxylato)platinum(II)

$$$$
