391
     RDKit          2D

 46 47  0  0  1  0  0  0  0  0999 V2000
    5.2224   -2.0965    0.0000 S   0  0  0  0  0  0  0  0  0  0  0  0
    3.0791    0.7910    0.0000 O   0  0  0  0  0  0  0  0  0  0  0  0
    2.3645   -0.4465    0.0000 O   0  0  0  0  0  0  0  0  0  0  0  0
    5.6350   -1.3821    0.0000 O   0  0  0  0  0  0  0  0  0  0  0  0
    4.8099   -2.8110    0.0000 O   0  0  0  0  0  0  0  0  0  0  0  0
    5.9762    1.6929    0.0000 N   0  0  0  0  0  0  0  0  0  0  0  0
    4.5080    0.7910    0.0000 N   0  0  0  0  0  0  0  0  0  0  0  0
    5.9370   -2.5090    0.0000 N   0  0  0  0  0  0  0  0  0  0  0  0
    5.2224    2.0286    0.0000 C   0  0  0  0  0  0  0  0  0  0  0  0
    5.3087    2.8490    0.0000 C   0  0  0  0  0  0  0  0  0  0  0  0
    6.1157    3.0206    0.0000 C   0  0  0  0  0  0  0  0  0  0  0  0
    6.5282    2.3061    0.0000 C   0  0  0  0  0  0  0  0  0  0  0  0
    4.5080    1.6160    0.0000 C   0  0  0  0  0  0  0  0  0  0  0  0
    6.1477    0.8860    0.0000 C   0  0  0  0  0  0  0  0  0  0  0  0
    6.9323    0.6311    0.0000 C   0  0  0  0  0  0  0  0  0  0  0  0
    3.7935    0.3785    0.0000 C   0  0  0  0  0  0  0  0  0  0  0  0
    3.7935   -0.4465    0.0000 C   0  0  0  0  0  0  0  0  0  0  0  0
    4.5080   -0.8590    0.0000 C   0  0  0  0  0  0  0  0  0  0  0  0
    3.0791   -0.8590    0.0000 C   0  0  0  0  0  0  0  0  0  0  0  0
    4.5080   -1.6840    0.0000 C   0  0  0  0  0  0  0  0  0  0  0  0
    3.0791   -1.6840    0.0000 C   0  0  0  0  0  0  0  0  0  0  0  0
    3.7935   -2.0965    0.0000 C   0  0  0  0  0  0  0  0  0  0  0  0
    1.6500   -0.8590    0.0000 C   0  0  0  0  0  0  0  0  0  0  0  0
    0.0000    0.0000    0.0000 H   0  0  0  0  0  0  0  0  0  0  0  0
    0.0000    0.0000    0.0000 H   0  0  0  0  0  0  0  0  0  0  0  0
    0.0000    0.0000    0.0000 H   0  0  0  0  0  0  0  0  0  0  0  0
    0.0000    0.0000    0.0000 H   0  0  0  0  0  0  0  0  0  0  0  0
    0.0000    0.0000    0.0000 H   0  0  0  0  0  0  0  0  0  0  0  0
    0.0000    0.0000    0.0000 H   0  0  0  0  0  0  0  0  0  0  0  0
    0.0000    0.0000    0.0000 H   0  0  0  0  0  0  0  0  0  0  0  0
    0.0000    0.0000    0.0000 H   0  0  0  0  0  0  0  0  0  0  0  0
    0.0000    0.0000    0.0000 H   0  0  0  0  0  0  0  0  0  0  0  0
    0.0000    0.0000    0.0000 H   0  0  0  0  0  0  0  0  0  0  0  0
    0.0000    0.0000    0.0000 H   0  0  0  0  0  0  0  0  0  0  0  0
    0.0000    0.0000    0.0000 H   0  0  0  0  0  0  0  0  0  0  0  0
    0.0000    0.0000    0.0000 H   0  0  0  0  0  0  0  0  0  0  0  0
    0.0000    0.0000    0.0000 H   0  0  0  0  0  0  0  0  0  0  0  0
    0.0000    0.0000    0.0000 H   0  0  0  0  0  0  0  0  0  0  0  0
    0.0000    0.0000    0.0000 H   0  0  0  0  0  0  0  0  0  0  0  0
    0.0000    0.0000    0.0000 H   0  0  0  0  0  0  0  0  0  0  0  0
    0.0000    0.0000    0.0000 H   0  0  0  0  0  0  0  0  0  0  0  0
    0.0000    0.0000    0.0000 H   0  0  0  0  0  0  0  0  0  0  0  0
    0.0000    0.0000    0.0000 H   0  0  0  0  0  0  0  0  0  0  0  0
    0.0000    0.0000    0.0000 H   0  0  0  0  0  0  0  0  0  0  0  0
    0.0000    0.0000    0.0000 H   0  0  0  0  0  0  0  0  0  0  0  0
    0.0000    0.0000    0.0000 H   0  0  0  0  0  0  0  0  0  0  0  0
  1  4  2  0
  1  5  2  0
  1  8  1  0
  1 20  1  0
  2 16  2  0
  3 19  1  0
  3 23  1  0
  6  9  1  0
  6 12  1  0
  6 14  1  0
  7 13  1  0
  7 16  1  0
  9 10  1  0
  9 13  1  0
 10 11  1  0
 11 12  1  0
 14 15  1  0
 16 17  1  0
 17 18  2  0
 17 19  1  0
 18 20  1  0
 19 21  2  0
 20 22  2  0
 21 22  1  0
  7 24  1  0
  8 25  1  0
  8 26  1  0
  9 27  1  0
 10 28  1  0
 10 29  1  0
 11 30  1  0
 11 31  1  0
 12 32  1  0
 12 33  1  0
 13 34  1  0
 13 35  1  0
 14 36  1  0
 14 37  1  0
 15 38  1  0
 15 39  1  0
 15 40  1  0
 18 41  1  0
 21 42  1  0
 22 43  1  0
 23 44  1  0
 23 45  1  0
 23 46  1  0
M  END
>  <ALOGPS_LOGP>  (1) 
1.20

>  <ALOGPS_LOGS>  (1) 
-2.80

>  <ALOGPS_SOLUBILITY>  (1) 
5.37e-01 g/l

>  <DATABASE_ID>  (1) 
DB00391

>  <DATABASE_NAME>  (1) 
drugbank

>  <DRUGBANK_ID>  (1) 
DB00391

>  <DRUG_GROUPS>  (1) 
approved; investigational

>  <EXACT_MASS>  (1) 
341.140926929

>  <FORMULA>  (1) 
C15H23N3O4S

>  <GENERIC_NAME>  (1) 
Sulpiride

>  <INCHI_IDENTIFIER>  (1) 
InChI=1S/C15H23N3O4S/c1-3-18-8-4-5-11(18)10-17-15(19)13-9-12(23(16,20)21)6-7-14(13)22-2/h6-7,9,11H,3-5,8,10H2,1-2H3,(H,17,19)(H2,16,20,21)

>  <INCHI_KEY>  (1) 
BGRJTUBHPOOWDU-UHFFFAOYSA-N

>  <INTERNATIONAL_BRANDS>  (1) 
Bosnyl; Dogmatil; Dogmatyl; Dolmatil; Eglonyl; Espiride; Meresa; Modal

>  <JCHEM_ACCEPTOR_COUNT>  (1) 
5

>  <JCHEM_AVERAGE_POLARIZABILITY>  (1) 
36.176796783706045

>  <JCHEM_BIOAVAILABILITY>  (1) 
1

>  <JCHEM_DONOR_COUNT>  (1) 
2

>  <JCHEM_FORMAL_CHARGE>  (1) 
0

>  <JCHEM_GHOSE_FILTER>  (1) 
1

>  <JCHEM_IUPAC>  (1) 
N-[(1-ethylpyrrolidin-2-yl)methyl]-2-methoxy-5-sulfamoylbenzamide

>  <JCHEM_LOGP>  (1) 
0.2187704497017608

>  <JCHEM_MDDR_LIKE_RULE>  (1) 
0

>  <JCHEM_NUMBER_OF_RINGS>  (1) 
2

>  <JCHEM_PHYSIOLOGICAL_CHARGE>  (1) 
1

>  <JCHEM_PKA>  (1) 
13.510776927035483

>  <JCHEM_PKA_STRONGEST_ACIDIC>  (1) 
10.239751559325864

>  <JCHEM_PKA_STRONGEST_BASIC>  (1) 
8.39064222752283

>  <JCHEM_POLAR_SURFACE_AREA>  (1) 
101.73

>  <JCHEM_REFRACTIVITY>  (1) 
88.63310000000001

>  <JCHEM_ROTATABLE_BOND_COUNT>  (1) 
6

>  <JCHEM_RULE_OF_FIVE>  (1) 
1

>  <JCHEM_TRADITIONAL_IUPAC>  (1) 
sulpiride

>  <JCHEM_VEBER_RULE>  (1) 
0

>  <MOLECULAR_WEIGHT>  (1) 
341.426

>  <SECONDARY_ACCESSION_NUMBERS>  (1) 
APRD00032

>  <SMILES>  (1) 
CCN1CCCC1CNC(=O)C1=C(OC)C=CC(=C1)S(N)(=O)=O

>  <SYNONYMS>  (1) 
Levosulpirida; Levosulpiride; Levosulpiridum; Sulpirida; Sulpiridum

$$$$
