
     RDKit          2D

 46 50  0  0  0  0  0  0  0  0999 V2000
   -1.0717    0.4124    0.0000 C   0  0  0  0  0  0  0  0  0  0  0  0
   -1.0717   -0.4125    0.0000 C   0  0  0  0  0  0  0  0  0  0  0  0
   -1.7863    0.8249    0.0000 C   0  0  0  0  0  0  0  0  0  0  0  0
   -1.7863   -0.8250    0.0000 C   0  0  0  0  0  0  0  0  0  0  0  0
   -2.5008    0.4124    0.0000 C   0  0  0  0  0  0  0  0  0  0  0  0
   -2.5008   -0.4125    0.0000 C   0  0  0  0  0  0  0  0  0  0  0  0
    0.3574    0.4124    0.0000 N   0  0  0  0  0  0  0  0  0  0  0  0
    0.3574   -0.4125    0.0000 C   0  0  0  0  0  0  0  0  0  0  0  0
   -0.3573    0.8249    0.0000 C   0  0  0  0  0  0  0  0  0  0  0  0
   -0.3573   -0.8250    0.0000 C   0  0  0  0  0  0  0  0  0  0  0  0
   -0.3573   -1.6500    0.0000 C   0  0  0  0  0  0  0  0  0  0  0  0
   -1.0718   -2.0625    0.0000 C   0  0  0  0  0  0  0  0  0  0  0  0
   -1.7862   -1.6500    0.0000 C   0  0  0  0  0  0  0  0  0  0  0  0
   -0.3573    1.6501    0.0000 O   0  0  0  0  0  0  0  0  0  0  0  0
    1.0718    0.8249    0.0000 C   0  0  0  0  0  0  0  0  0  0  0  0
    1.0718    1.6500    0.0000 C   0  0  0  0  0  0  0  0  0  0  0  0
    1.7864    0.4124    0.0000 C   0  0  0  0  0  0  0  0  0  0  0  0
    1.7864    2.0625    0.0000 N   0  0  0  0  0  0  0  0  0  0  0  0
    2.5008    0.8249    0.0000 C   0  0  0  0  0  0  0  0  0  0  0  0
    2.5008    1.6500    0.0000 C   0  0  0  0  0  0  0  0  0  0  0  0
    1.5080    1.0972    0.0000 C   0  0  0  0  0  0  0  0  0  0  0  0
    2.0962    1.3106    0.0000 C   0  0  0  0  0  0  0  0  0  0  0  0
    0.0000    0.0000    0.0000 H   0  0  0  0  0  0  0  0  0  0  0  0
    0.0000    0.0000    0.0000 H   0  0  0  0  0  0  0  0  0  0  0  0
    0.0000    0.0000    0.0000 H   0  0  0  0  0  0  0  0  0  0  0  0
    0.0000    0.0000    0.0000 H   0  0  0  0  0  0  0  0  0  0  0  0
    0.0000    0.0000    0.0000 H   0  0  0  0  0  0  0  0  0  0  0  0
    0.0000    0.0000    0.0000 H   0  0  0  0  0  0  0  0  0  0  0  0
    0.0000    0.0000    0.0000 H   0  0  0  0  0  0  0  0  0  0  0  0
    0.0000    0.0000    0.0000 H   0  0  0  0  0  0  0  0  0  0  0  0
    0.0000    0.0000    0.0000 H   0  0  0  0  0  0  0  0  0  0  0  0
    0.0000    0.0000    0.0000 H   0  0  0  0  0  0  0  0  0  0  0  0
    0.0000    0.0000    0.0000 H   0  0  0  0  0  0  0  0  0  0  0  0
    0.0000    0.0000    0.0000 H   0  0  0  0  0  0  0  0  0  0  0  0
    0.0000    0.0000    0.0000 H   0  0  0  0  0  0  0  0  0  0  0  0
    0.0000    0.0000    0.0000 H   0  0  0  0  0  0  0  0  0  0  0  0
    0.0000    0.0000    0.0000 H   0  0  0  0  0  0  0  0  0  0  0  0
    0.0000    0.0000    0.0000 H   0  0  0  0  0  0  0  0  0  0  0  0
    0.0000    0.0000    0.0000 H   0  0  0  0  0  0  0  0  0  0  0  0
    0.0000    0.0000    0.0000 H   0  0  0  0  0  0  0  0  0  0  0  0
    0.0000    0.0000    0.0000 H   0  0  0  0  0  0  0  0  0  0  0  0
    0.0000    0.0000    0.0000 H   0  0  0  0  0  0  0  0  0  0  0  0
    0.0000    0.0000    0.0000 H   0  0  0  0  0  0  0  0  0  0  0  0
    0.0000    0.0000    0.0000 H   0  0  0  0  0  0  0  0  0  0  0  0
    0.0000    0.0000    0.0000 H   0  0  0  0  0  0  0  0  0  0  0  0
    0.0000    0.0000    0.0000 H   0  0  0  0  0  0  0  0  0  0  0  0
  3  1  2  0
  4  2  2  0
  5  3  1  0
  6  4  1  0
  6  5  2  0
  8  7  1  0
  9  7  1  0
 10  8  1  0
  1  9  1  0
  2  1  1  0
 11 10  1  0
  2 10  1  0
 12 11  1  0
 13 12  1  0
 13  4  1  0
  9 14  2  0
 16 15  1  0
 17 15  1  0
 18 16  1  0
 19 17  1  0
 20 18  1  0
 20 19  1  0
 15  7  1  6
 17 21  1  0
 21 22  1  0
 22 18  1  0
  3 23  1  0
  5 24  1  0
  6 25  1  0
  8 26  1  0
  8 27  1  0
 10 28  1  6
 11 29  1  0
 11 30  1  0
 12 31  1  0
 12 32  1  0
 13 33  1  0
 13 34  1  0
 15 35  1  0
 16 36  1  0
 16 37  1  0
 17 38  1  0
 19 39  1  0
 19 40  1  0
 20 41  1  0
 20 42  1  0
 21 43  1  0
 21 44  1  0
 22 45  1  0
 22 46  1  0
M  END
>  <ALOGPS_LOGP>  (1) 
2.72

>  <ALOGPS_LOGS>  (1) 
-2.81

>  <ALOGPS_SOLUBILITY>  (1) 
4.64e-01 g/l

>  <DATABASE_ID>  (1) 
DB00377

>  <DATABASE_NAME>  (1) 
drugbank

>  <DRUGBANK_ID>  (1) 
DB00377

>  <DRUG_GROUPS>  (1) 
approved; investigational

>  <EXACT_MASS>  (1) 
296.188863401

>  <FORMULA>  (1) 
C19H24N2O

>  <GENERIC_NAME>  (1) 
Palonosetron

>  <INCHI_IDENTIFIER>  (1) 
InChI=1S/C19H24N2O/c22-19-16-6-2-4-14-3-1-5-15(18(14)16)11-21(19)17-12-20-9-7-13(17)8-10-20/h2,4,6,13,15,17H,1,3,5,7-12H2/t15-,17-/m1/s1

>  <INCHI_KEY>  (1) 
CPZBLNMUGSZIPR-NVXWUHKLSA-N

>  <INTERNATIONAL_BRANDS>  (1) 
Jiouting; Onicit; Palnox; Paloxi; Palzen; Themiset; Zhiruo

>  <JCHEM_ACCEPTOR_COUNT>  (1) 
2

>  <JCHEM_ATOM_COUNT>  (1) 
46

>  <JCHEM_AVERAGE_POLARIZABILITY>  (1) 
33.89985376401508

>  <JCHEM_BIOAVAILABILITY>  (1) 
1

>  <JCHEM_DONOR_COUNT>  (1) 
0

>  <JCHEM_FORMAL_CHARGE>  (1) 
0

>  <JCHEM_GHOSE_FILTER>  (1) 
1

>  <JCHEM_IUPAC>  (1) 
(5S)-3-[(3S)-1-azabicyclo[2.2.2]octan-3-yl]-3-azatricyclo[7.3.1.0⁵,¹³]trideca-1(12),9(13),10-trien-2-one

>  <JCHEM_LOGP>  (1) 
2.5460127283333343

>  <JCHEM_MDDR_LIKE_RULE>  (1) 
0

>  <JCHEM_NUMBER_OF_RINGS>  (1) 
5

>  <JCHEM_PHYSIOLOGICAL_CHARGE>  (1) 
1

>  <JCHEM_PKA_STRONGEST_BASIC>  (1) 
7.973688632702442

>  <JCHEM_POLAR_SURFACE_AREA>  (1) 
23.550000000000004

>  <JCHEM_REFRACTIVITY>  (1) 
88.52129999999998

>  <JCHEM_ROTATABLE_BOND_COUNT>  (1) 
1

>  <JCHEM_RULE_OF_FIVE>  (1) 
1

>  <JCHEM_TRADITIONAL_IUPAC>  (1) 
2-qhbiqo

>  <JCHEM_VEBER_RULE>  (1) 
1

>  <MOLECULAR_WEIGHT>  (1) 
296.414

>  <PRODUCTS>  (1) 
Akynzeo; Aloxi; Palonosetron; Palonosetron Hospira; Palonosetron Hydrochloride

>  <SALTS>  (1) 
Palonosetron Hydrochloride

>  <SECONDARY_ACCESSION_NUMBERS>  (1) 
APRD00351

>  <SMILES>  (1) 
[H][C@]12CCCC3=C1C(=CC=C3)C(=O)N(C2)[C@@H]1CN2CCC1CC2

>  <SYNONYMS>  (1) 
(3aS)-2-[(3S)-1-azabicyclo[2.2.2]oct-3-yl]-2,3,3a, 4,5,6-hexahydro-1H-benz[de]isoquinolin-1-one; (3aS)-2,3,3a,4,5,6-hexahydro-2-[(3S)-3-quinuclidinyl]-1H-benz[de]isoquinolin-1-one; Palonosetron; Palonosétron; Palonosetrón; Palonosetronum

$$$$
