120
     RDKit          2D

 23 23  0  0  1  0  0  0  0  0999 V2000
    3.7934    1.8067    0.0000 O   0  0  0  0  0  0  0  0  0  0  0  0
    2.3644    1.8067    0.0000 O   0  0  0  0  0  0  0  0  0  0  0  0
    3.7934    0.1568    0.0000 N   0  0  0  0  0  0  0  0  0  0  0  0
    2.3644    0.1568    0.0000 C   0  0  0  0  0  0  0  0  0  0  0  0
    3.0790    0.5692    0.0000 C   0  0  0  0  0  0  0  0  0  0  0  0
    2.3644   -0.6683    0.0000 C   0  0  0  0  0  0  0  0  0  0  0  0
    3.0790   -1.0808    0.0000 C   0  0  0  0  0  0  0  0  0  0  0  0
    1.6500   -1.0808    0.0000 C   0  0  0  0  0  0  0  0  0  0  0  0
    3.0790    1.3942    0.0000 C   0  0  0  0  0  0  0  0  0  0  0  0
    3.0790   -1.9058    0.0000 C   0  0  0  0  0  0  0  0  0  0  0  0
    1.6500   -1.9058    0.0000 C   0  0  0  0  0  0  0  0  0  0  0  0
    2.3644   -2.3182    0.0000 C   0  0  0  0  0  0  0  0  0  0  0  0
    0.0000    0.0000    0.0000 H   0  0  0  0  0  0  0  0  0  0  0  0
    0.0000    0.0000    0.0000 H   0  0  0  0  0  0  0  0  0  0  0  0
    0.0000    0.0000    0.0000 H   0  0  0  0  0  0  0  0  0  0  0  0
    0.0000    0.0000    0.0000 H   0  0  0  0  0  0  0  0  0  0  0  0
    0.0000    0.0000    0.0000 H   0  0  0  0  0  0  0  0  0  0  0  0
    0.0000    0.0000    0.0000 H   0  0  0  0  0  0  0  0  0  0  0  0
    0.0000    0.0000    0.0000 H   0  0  0  0  0  0  0  0  0  0  0  0
    0.0000    0.0000    0.0000 H   0  0  0  0  0  0  0  0  0  0  0  0
    0.0000    0.0000    0.0000 H   0  0  0  0  0  0  0  0  0  0  0  0
    0.0000    0.0000    0.0000 H   0  0  0  0  0  0  0  0  0  0  0  0
    0.0000    0.0000    0.0000 H   0  0  0  0  0  0  0  0  0  0  0  0
  1  9  1  0
  2  9  2  0
  5  3  1  6
  4  5  1  0
  4  6  1  0
  5  9  1  0
  6  7  2  0
  6  8  1  0
  7 10  1  0
  8 11  2  0
 10 12  2  0
 11 12  1  0
  1 13  1  0
  3 14  1  0
  3 15  1  0
  4 16  1  0
  4 17  1  0
  5 18  1  0
  7 19  1  0
  8 20  1  0
 10 21  1  0
 11 22  1  0
 12 23  1  0
M  END
>  <ALOGPS_LOGP>  (1) 
-1.35

>  <ALOGPS_LOGS>  (1) 
-1.60

>  <ALOGPS_SOLUBILITY>  (1) 
4.14e+00 g/l

>  <DATABASE_ID>  (1) 
DB00120

>  <DATABASE_NAME>  (1) 
drugbank

>  <DRUGBANK_ID>  (1) 
DB00120

>  <DRUG_GROUPS>  (1) 
approved; nutraceutical

>  <EXACT_MASS>  (1) 
165.078978601

>  <FORMULA>  (1) 
C9H11NO2

>  <GENERIC_NAME>  (1) 
L-Phenylalanine

>  <INCHI_IDENTIFIER>  (1) 
InChI=1S/C9H11NO2/c10-8(9(11)12)6-7-4-2-1-3-5-7/h1-5,8H,6,10H2,(H,11,12)/t8-/m0/s1

>  <INCHI_KEY>  (1) 
COLNVLDHVKWLRT-QMMMGPOBSA-N

>  <JCHEM_ACCEPTOR_COUNT>  (1) 
3

>  <JCHEM_AVERAGE_POLARIZABILITY>  (1) 
17.031976384631157

>  <JCHEM_BIOAVAILABILITY>  (1) 
1

>  <JCHEM_DONOR_COUNT>  (1) 
2

>  <JCHEM_FORMAL_CHARGE>  (1) 
0

>  <JCHEM_GHOSE_FILTER>  (1) 
0

>  <JCHEM_IUPAC>  (1) 
(2S)-2-amino-3-phenylpropanoic acid

>  <JCHEM_LOGP>  (1) 
-1.184438468740489

>  <JCHEM_MDDR_LIKE_RULE>  (1) 
0

>  <JCHEM_NUMBER_OF_RINGS>  (1) 
1

>  <JCHEM_PHYSIOLOGICAL_CHARGE>  (1) 
0

>  <JCHEM_PKA_STRONGEST_ACIDIC>  (1) 
2.469229772182635

>  <JCHEM_PKA_STRONGEST_BASIC>  (1) 
9.446936344396194

>  <JCHEM_POLAR_SURFACE_AREA>  (1) 
63.31999999999999

>  <JCHEM_REFRACTIVITY>  (1) 
45.11630000000001

>  <JCHEM_ROTATABLE_BOND_COUNT>  (1) 
3

>  <JCHEM_RULE_OF_FIVE>  (1) 
1

>  <JCHEM_TRADITIONAL_IUPAC>  (1) 
L-phenylalanine

>  <JCHEM_VEBER_RULE>  (1) 
0

>  <MOLECULAR_WEIGHT>  (1) 
165.1891

>  <PRODUCTS>  (1) 
2.5% Travasol Amino Acid Injection With Electrolytes In 10% Dextrose; 2.5% Travasol Amino Acid Injection With Electrolytes In 10% Dextrose Clinimix; 2.5% Travasol Amino Acid Injection Without Electrolytes In 10% Dextrose Quickmix; 2.5%travasol Amino Acid InJ.W.eleC.W.25%dex; 2.75% Travas. Amino Acid InJ.W.elecw.25%dex; 2.75% Travasol Amino Acid Injection With Electrolytes In 25% Dextrose Quickmix; 2.75% Travasol Amino Acid Injection With Electrolytes In 5% Dextrose Quickmix; 2.75%travasol Amino Acid InJ.W.eleC.W.5%dex.; 4.25% Amino Acid Injection Without Electrolytes In 20% Dextrose Quickmix; 4.25% Travasol Amino Acid Injection With Electrolytes In 10% Dextrose; 4.25% Travasol Amino Acid Injection With Electrolytes In 20% Dextrose; 4.25% Travasol Amino Acid Injection With Electrolytes In 20% Dextrose Quickmix; 4.25% Travasol Amino Acid Injection With Electrolytes In 25% Dextrose; 4.25% Travasol Amino Acid Injection With Electrolytes In 5% Dextrose Quickmix; 4.25% Travasol Amino Acid Injection Without Electrlytes In 10% Dextrose; 4.25% Travasol Amino Acid Injection Without Electrolytes In 20% Dextrose; 4.25% Travasol Amino Acid Injection Without Electrolytes In 25% Dextrose; 4.25% Travasol Amino Acid Without Electrolytes In 5% Dextrose Quickmix; 4.25%trav. Amino Acid InJ.W.O.elect.5%dext.; 4.25%travasol Amino Acid InJ.W.elecw.5%dex.; 5% Travasol Amino Acid Injection With Electrolytes In 20% Dextrose; 5% Travasol Amino Acid Injection Without Electrolytes In 20% Dextrose; 5% Travasol Amino Acid Injection Without Electrolytes In 25% Dextrose; Aminosyn; Aminosyn 10%; Aminosyn 10% W Electrolytes; Aminosyn 3.5% M; Aminosyn 5%; Aminosyn 7%; Aminosyn 8.5%; Aminosyn 8.5% Injection With Electrolytes; Aminosyn II; Aminosyn II 10%; Aminosyn II 10% With Electrolytes; Aminosyn II 15%; Aminosyn II 5% Inj; Aminosyn II 7% Injection; Aminosyn II 7% M In 10% Dextrose(dual Chamber); Aminosyn II 7% With 10% Dextrose; Aminosyn II 7% With 50% Dextrose; Aminosyn II 8.5% Injection; Aminosyn II 8.5% M In 20% Dextrose (dual Chamber); Aminosyn II 8.5% With 50% Dextrose; Aminosyn II In Dextrose Injection; Aminosyn II with Electrolytes; Aminosyn RF; Aminosyn RF Injection; Aminosyn Sulfite Free; Aminosyn-PF; Aminosyn-PF 10%; Aminosyn-PF 7%; Clinimix; Clinimix 2.5% Travasol Aa Without Electrolytes In 10% Dextrose Injec; Clinimix E; Clinisol; FreAmine HBC; FreAmine III; HepatAmine; NephrAmine; Novamine; Olimel 3.3% E; Olimel 4.4%; Olimel 4.4% E; Olimel 5.7%; Olimel 5.7% E; Periolimel 2.5% E; Plenamine; Premasol - sulfite-free (Amino Acid); Primene 10%; Primene 10%-liq IV; ProSol; Quick Mix 2.5% Travasol Aa With Electrolytes With 25% Dextrose Injec; Renamin (amino Acids) Injection; Travasol; Travasol Amino Acid Inj 5.5%; Travasol Amino Acid Inj 8.5%; Travasol E; Travasol Inj Without Electrolytes 5.5%; TrophAmine; Vamin 18 Electrolyte-free; Vamin N

>  <SALTS>  (1) 
Phenylalanine hydrochloride; Phenylalanine sodium

>  <SECONDARY_ACCESSION_NUMBERS>  (1) 
NUTR00044

>  <SMILES>  (1) 
N[C@@H](CC1=CC=CC=C1)C(O)=O

>  <SYNONYMS>  (1) 
(S)-2-Amino-3-phenylpropionic acid; (S)-alpha-Amino-beta-phenylpropionic acid; 3-phenyl-L-alanine; beta-Phenyl-L-alanine; F; Phe; Phenylalanine; Î²-phenyl-L-alanine

$$$$
