426
     RDKit          2D

 42 43  0  0  0  0  0  0  0  0999 V2000
    6.0423    1.6137    0.0000 O   0  0  0  0  0  0  0  0  0  0  0  0
    7.4005    1.1698    0.0000 O   0  0  0  0  0  0  0  0  0  0  0  0
    4.6840    2.0577    0.0000 O   0  0  0  0  0  0  0  0  0  0  0  0
    8.7588    0.7258    0.0000 O   0  0  0  0  0  0  0  0  0  0  0  0
    5.0170   -1.5230    0.0000 N   0  0  0  0  0  0  0  0  0  0  0  0
    5.0170   -2.8509    0.0000 N   0  0  0  0  0  0  0  0  0  0  0  0
    3.5220   -1.3619    0.0000 N   0  0  0  0  0  0  0  0  0  0  0  0
    2.8075   -2.5994    0.0000 N   0  0  0  0  0  0  0  0  0  0  0  0
    2.0930   -1.3619    0.0000 N   0  0  0  0  0  0  0  0  0  0  0  0
    6.3370    0.2155    0.0000 C   0  0  0  0  0  0  0  0  0  0  0  0
    6.0806   -0.5687    0.0000 C   0  0  0  0  0  0  0  0  0  0  0  0
    5.2734   -0.7389    0.0000 C   0  0  0  0  0  0  0  0  0  0  0  0
    5.7859    0.8295    0.0000 C   0  0  0  0  0  0  0  0  0  0  0  0
    7.1442    0.3856    0.0000 C   0  0  0  0  0  0  0  0  0  0  0  0
    4.2364   -1.7744    0.0000 C   0  0  0  0  0  0  0  0  0  0  0  0
    5.4985   -2.1869    0.0000 C   0  0  0  0  0  0  0  0  0  0  0  0
    4.2364   -2.5994    0.0000 C   0  0  0  0  0  0  0  0  0  0  0  0
    3.5220   -3.0119    0.0000 C   0  0  0  0  0  0  0  0  0  0  0  0
    5.4913    2.2278    0.0000 C   0  0  0  0  0  0  0  0  0  0  0  0
    8.2078    1.3399    0.0000 C   0  0  0  0  0  0  0  0  0  0  0  0
    2.8075   -1.7744    0.0000 C   0  0  0  0  0  0  0  0  0  0  0  0
    5.7476    3.0119    0.0000 C   0  0  0  0  0  0  0  0  0  0  0  0
    8.4641    2.1241    0.0000 C   0  0  0  0  0  0  0  0  0  0  0  0
    0.0000    0.0000    0.0000 H   0  0  0  0  0  0  0  0  0  0  0  0
    0.0000    0.0000    0.0000 H   0  0  0  0  0  0  0  0  0  0  0  0
    0.0000    0.0000    0.0000 H   0  0  0  0  0  0  0  0  0  0  0  0
    0.0000    0.0000    0.0000 H   0  0  0  0  0  0  0  0  0  0  0  0
    0.0000    0.0000    0.0000 H   0  0  0  0  0  0  0  0  0  0  0  0
    0.0000    0.0000    0.0000 H   0  0  0  0  0  0  0  0  0  0  0  0
    0.0000    0.0000    0.0000 H   0  0  0  0  0  0  0  0  0  0  0  0
    0.0000    0.0000    0.0000 H   0  0  0  0  0  0  0  0  0  0  0  0
    0.0000    0.0000    0.0000 H   0  0  0  0  0  0  0  0  0  0  0  0
    0.0000    0.0000    0.0000 H   0  0  0  0  0  0  0  0  0  0  0  0
    0.0000    0.0000    0.0000 H   0  0  0  0  0  0  0  0  0  0  0  0
    0.0000    0.0000    0.0000 H   0  0  0  0  0  0  0  0  0  0  0  0
    0.0000    0.0000    0.0000 H   0  0  0  0  0  0  0  0  0  0  0  0
    0.0000    0.0000    0.0000 H   0  0  0  0  0  0  0  0  0  0  0  0
    0.0000    0.0000    0.0000 H   0  0  0  0  0  0  0  0  0  0  0  0
    0.0000    0.0000    0.0000 H   0  0  0  0  0  0  0  0  0  0  0  0
    0.0000    0.0000    0.0000 H   0  0  0  0  0  0  0  0  0  0  0  0
    0.0000    0.0000    0.0000 H   0  0  0  0  0  0  0  0  0  0  0  0
    0.0000    0.0000    0.0000 H   0  0  0  0  0  0  0  0  0  0  0  0
  1 13  1  0
  1 19  1  0
  2 14  1  0
  2 20  1  0
  3 19  2  0
  4 20  2  0
  5 12  1  0
  5 15  1  0
  5 16  1  0
  6 16  2  0
  6 17  1  0
  7 15  2  0
  7 21  1  0
  8 18  1  0
  8 21  2  0
  9 21  1  0
 10 11  1  0
 10 13  1  0
 10 14  1  0
 11 12  1  0
 15 17  1  0
 17 18  2  0
 19 22  1  0
 20 23  1  0
  9 24  1  0
  9 25  1  0
 10 26  1  0
 11 27  1  0
 11 28  1  0
 12 29  1  0
 12 30  1  0
 13 31  1  0
 13 32  1  0
 14 33  1  0
 14 34  1  0
 16 35  1  0
 18 36  1  0
 22 37  1  0
 22 38  1  0
 22 39  1  0
 23 40  1  0
 23 41  1  0
 23 42  1  0
M  END
>  <ALOGPS_LOGP>  (1) 
0.13

>  <ALOGPS_LOGS>  (1) 
-2.39

>  <ALOGPS_SOLUBILITY>  (1) 
1.32e+00 g/l

>  <DATABASE_ID>  (1) 
DB00426

>  <DATABASE_NAME>  (1) 
drugbank

>  <DRUGBANK_ID>  (1) 
DB00426

>  <DRUG_GROUPS>  (1) 
approved

>  <EXACT_MASS>  (1) 
321.143704121

>  <FORMULA>  (1) 
C14H19N5O4

>  <GENERIC_NAME>  (1) 
Famciclovir

>  <INCHI_IDENTIFIER>  (1) 
InChI=1S/C14H19N5O4/c1-9(20)22-6-11(7-23-10(2)21)3-4-19-8-17-12-5-16-14(15)18-13(12)19/h5,8,11H,3-4,6-7H2,1-2H3,(H2,15,16,18)

>  <INCHI_KEY>  (1) 
GGXKWVWZWMLJEH-UHFFFAOYSA-N

>  <INTERNATIONAL_BRANDS>  (1) 
Ezovir; Fambir; Famcino; Famcir; Famvir Once; Fanclomax; Fanle; Microvir; Oravir; Pentavir; Penvir; Pixin; Virovir; Wan Qi; Weike

>  <JCHEM_ACCEPTOR_COUNT>  (1) 
6

>  <JCHEM_AVERAGE_POLARIZABILITY>  (1) 
32.82547944138288

>  <JCHEM_BIOAVAILABILITY>  (1) 
1

>  <JCHEM_DONOR_COUNT>  (1) 
1

>  <JCHEM_FORMAL_CHARGE>  (1) 
0

>  <JCHEM_GHOSE_FILTER>  (1) 
0

>  <JCHEM_IUPAC>  (1) 
2-[(acetyloxy)methyl]-4-(2-amino-9H-purin-9-yl)butyl acetate

>  <JCHEM_LOGP>  (1) 
-0.4836860169999998

>  <JCHEM_MDDR_LIKE_RULE>  (1) 
0

>  <JCHEM_NUMBER_OF_RINGS>  (1) 
2

>  <JCHEM_PHYSIOLOGICAL_CHARGE>  (1) 
0

>  <JCHEM_PKA_STRONGEST_ACIDIC>  (1) 
16.700940442073367

>  <JCHEM_PKA_STRONGEST_BASIC>  (1) 
5.048475789934001

>  <JCHEM_POLAR_SURFACE_AREA>  (1) 
122.22

>  <JCHEM_REFRACTIVITY>  (1) 
81.53530000000002

>  <JCHEM_ROTATABLE_BOND_COUNT>  (1) 
9

>  <JCHEM_RULE_OF_FIVE>  (1) 
1

>  <JCHEM_TRADITIONAL_IUPAC>  (1) 
famciclovir

>  <JCHEM_VEBER_RULE>  (1) 
0

>  <MOLECULAR_WEIGHT>  (1) 
321.3318

>  <PRODUCTS>  (1) 
Act Famciclovir; Apo-famciclovir; Auro-famciclovir; Ava-famciclovir; Dom-famciclovir; Famciclovir; Famvir; Famvir Tablets 125mg; Famvir Tablets 250mg; Famvir Tablets 500mg; Novo-famciclovir; PHL-famciclovir; PMS-famciclovir; Sandoz Famciclovir

>  <SECONDARY_ACCESSION_NUMBERS>  (1) 
APRD00600

>  <SMILES>  (1) 
CC(=O)OCC(CCN1C=NC2=CN=C(N)N=C12)COC(C)=O

>  <SYNONYMS>  (1) 
2-(2-(2-amino-9H-purin-9-yl)ethyl)-1,3-propanediol diacetate; 9-[4-acetoxy-3-(acetoxymethyl)but-1-yl]-2-aminopurine; acetic acid 2-acetoxymethyl-4-(2-amino-purin-9-yl)-butyl ester; Famciclovir; Famciclovirum; FCV

$$$$
