693
     RDKit          2D

 37 41  0  0  0  0  0  0  0  0999 V2000
    4.1660   -0.4052    0.0000 O   0  0  0  0  0  0  0  0  0  0  0  0
    4.8068    1.6446    0.0000 O   0  0  0  0  0  0  0  0  0  0  0  0
    3.9452   -1.7994    0.0000 O   0  0  0  0  0  0  0  0  0  0  0  0
    2.0104    1.6637    0.0000 O   0  0  0  0  0  0  0  0  0  0  0  0
    7.6032    1.6637    0.0000 O   0  0  0  0  0  0  0  0  0  0  0  0
    4.8068    0.0604    0.0000 C   0  0  0  0  0  0  0  0  0  0  0  0
    5.4477   -0.4052    0.0000 C   0  0  0  0  0  0  0  0  0  0  0  0
    4.1207    0.4565    0.0000 C   0  0  0  0  0  0  0  0  0  0  0  0
    5.4928    0.4565    0.0000 C   0  0  0  0  0  0  0  0  0  0  0  0
    5.2029   -1.1587    0.0000 C   0  0  0  0  0  0  0  0  0  0  0  0
    4.1207    1.2485    0.0000 C   0  0  0  0  0  0  0  0  0  0  0  0
    5.4928    1.2485    0.0000 C   0  0  0  0  0  0  0  0  0  0  0  0
    4.4108   -1.1587    0.0000 C   0  0  0  0  0  0  0  0  0  0  0  0
    6.2362   -0.6481    0.0000 C   0  0  0  0  0  0  0  0  0  0  0  0
    3.4127    0.0329    0.0000 C   0  0  0  0  0  0  0  0  0  0  0  0
    6.2009    0.0329    0.0000 C   0  0  0  0  0  0  0  0  0  0  0  0
    5.3619   -1.9682    0.0000 C   0  0  0  0  0  0  0  0  0  0  0  0
    3.4127    1.6720    0.0000 C   0  0  0  0  0  0  0  0  0  0  0  0
    6.2009    1.6720    0.0000 C   0  0  0  0  0  0  0  0  0  0  0  0
    6.5286   -1.5283    0.0000 C   0  0  0  0  0  0  0  0  0  0  0  0
    2.6950    0.4399    0.0000 C   0  0  0  0  0  0  0  0  0  0  0  0
    6.9186    0.4399    0.0000 C   0  0  0  0  0  0  0  0  0  0  0  0
    6.0301   -2.1549    0.0000 C   0  0  0  0  0  0  0  0  0  0  0  0
    2.6950    1.2650    0.0000 C   0  0  0  0  0  0  0  0  0  0  0  0
    6.9186    1.2650    0.0000 C   0  0  0  0  0  0  0  0  0  0  0  0
    0.0000    0.0000    0.0000 H   0  0  0  0  0  0  0  0  0  0  0  0
    0.0000    0.0000    0.0000 H   0  0  0  0  0  0  0  0  0  0  0  0
    0.0000    0.0000    0.0000 H   0  0  0  0  0  0  0  0  0  0  0  0
    0.0000    0.0000    0.0000 H   0  0  0  0  0  0  0  0  0  0  0  0
    0.0000    0.0000    0.0000 H   0  0  0  0  0  0  0  0  0  0  0  0
    0.0000    0.0000    0.0000 H   0  0  0  0  0  0  0  0  0  0  0  0
    0.0000    0.0000    0.0000 H   0  0  0  0  0  0  0  0  0  0  0  0
    0.0000    0.0000    0.0000 H   0  0  0  0  0  0  0  0  0  0  0  0
    0.0000    0.0000    0.0000 H   0  0  0  0  0  0  0  0  0  0  0  0
    0.0000    0.0000    0.0000 H   0  0  0  0  0  0  0  0  0  0  0  0
    0.0000    0.0000    0.0000 H   0  0  0  0  0  0  0  0  0  0  0  0
    0.0000    0.0000    0.0000 H   0  0  0  0  0  0  0  0  0  0  0  0
  1  6  1  0
  1 13  1  0
  2 11  1  0
  2 12  1  0
  3 13  2  0
  4 24  1  0
  5 25  1  0
  6  7  1  0
  6  8  1  0
  6  9  1  0
  7 10  2  0
  7 14  1  0
  8 11  2  0
  8 15  1  0
  9 12  2  0
  9 16  1  0
 10 13  1  0
 10 17  1  0
 11 18  1  0
 12 19  1  0
 14 20  2  0
 15 21  2  0
 16 22  2  0
 17 23  2  0
 18 24  2  0
 19 25  2  0
 20 23  1  0
 21 24  1  0
 22 25  1  0
  4 26  1  0
  5 27  1  0
 14 28  1  0
 15 29  1  0
 16 30  1  0
 17 31  1  0
 18 32  1  0
 19 33  1  0
 20 34  1  0
 21 35  1  0
 22 36  1  0
 23 37  1  0
M  END
>  <ALOGPS_LOGP>  (1) 
2.64

>  <ALOGPS_LOGS>  (1) 
-4.11

>  <ALOGPS_SOLUBILITY>  (1) 
2.55e-02 g/l

>  <DATABASE_ID>  (1) 
DB00693

>  <DATABASE_NAME>  (1) 
drugbank

>  <DRUGBANK_ID>  (1) 
DB00693

>  <DRUG_GROUPS>  (1) 
approved

>  <EXACT_MASS>  (1) 
332.068473494

>  <FORMULA>  (1) 
C20H12O5

>  <GENERIC_NAME>  (1) 
Fluorescein

>  <INCHI_IDENTIFIER>  (1) 
InChI=1S/C20H12O5/c21-11-5-7-15-17(9-11)24-18-10-12(22)6-8-16(18)20(15)14-4-2-1-3-13(14)19(23)25-20/h1-10,21-22H

>  <INCHI_KEY>  (1) 
GNBHRKFJIUUOQI-UHFFFAOYSA-N

>  <JCHEM_ACCEPTOR_COUNT>  (1) 
3

>  <JCHEM_AVERAGE_POLARIZABILITY>  (1) 
33.13670573386322

>  <JCHEM_BIOAVAILABILITY>  (1) 
1

>  <JCHEM_DONOR_COUNT>  (1) 
2

>  <JCHEM_FORMAL_CHARGE>  (1) 
0

>  <JCHEM_GHOSE_FILTER>  (1) 
1

>  <JCHEM_IUPAC>  (1) 
3',6'-dihydroxy-3H-spiro[2-benzofuran-1,9'-xanthene]-3-one

>  <JCHEM_LOGP>  (1) 
3.8803428233333337

>  <JCHEM_MDDR_LIKE_RULE>  (1) 
0

>  <JCHEM_NUMBER_OF_RINGS>  (1) 
5

>  <JCHEM_PHYSIOLOGICAL_CHARGE>  (1) 
0

>  <JCHEM_PKA>  (1) 
9.32163026838164

>  <JCHEM_PKA_STRONGEST_ACIDIC>  (1) 
8.719013046515911

>  <JCHEM_PKA_STRONGEST_BASIC>  (1) 
-6.0213957096868755

>  <JCHEM_POLAR_SURFACE_AREA>  (1) 
75.99000000000001

>  <JCHEM_REFRACTIVITY>  (1) 
91.22010000000003

>  <JCHEM_ROTATABLE_BOND_COUNT>  (1) 
0

>  <JCHEM_RULE_OF_FIVE>  (1) 
1

>  <JCHEM_TRADITIONAL_IUPAC>  (1) 
fluorescein

>  <JCHEM_VEBER_RULE>  (1) 
0

>  <MOLECULAR_WEIGHT>  (1) 
332.3063

>  <PRODUCTS>  (1) 
Ak-fluor; Altafluor; Bio Glo; BioGlo; Diofluor Strips; Dry Eye Test; Flucaine; Fluorescein; Fluorescein Sodium & Benoxinate Hydrochloride Ophthalmic Solution, USP; Fluorescein Sodium and Benoxinate Hydrochloride; Fluorescein Sodium and Proparacaine Hydrochloride; Fluorescite; Fluorescite Inj 25%; Fluorets  - Stp Oph 1mg; Fluorets (fluorescein Ophthalmic Strips); Fluorox; Fluress; Fluress Liq Oph; Flurox; Ful-glo; Funduscein 25% Inj; GloStrips; Minims Fluorescein Sodium 2%; Minims Lidocaine and Fluorescein; Odan-fluoracaine; Odan-fluorescein; Odan-fluorets

>  <SALTS>  (1) 
Fluorescein disodium; Fluorescein sodium

>  <SECONDARY_ACCESSION_NUMBERS>  (1) 
APRD00979; EXPT01447; DB07777

>  <SMILES>  (1) 
OC1=CC2=C(C=C1)C1(OC(=O)C3=CC=CC=C13)C1=C(O2)C=C(O)C=C1

>  <SYNONYMS>  (1) 
3,6-fluorandiol; 3',6'-dihydroxyfluoran; 9-(o-carboxyphenyl)-6-hydroxy-3-isoxanthenone; 9-(o-carboxyphenyl)-6-hydroxy-3H-xanthen-3-one; C.I. Solvent Yellow 94; D and C Yellow No. 7; D&C Yellow No. 7; Fluoreszein; Japan Yellow 201; Resorcinolphthalein; Solvent Yellow 94; Yellow fluorescein

$$$$
