408
     RDKit          2D

 41 44  0  0  0  0  0  0  0  0999 V2000
    1.5841   -1.1304    0.0000 Cl  0  0  0  0  0  0  0  0  0  0  0  0
    4.6238   -2.1816    0.0000 O   0  0  0  0  0  0  0  0  0  0  0  0
    3.8841    0.2673    0.0000 N   0  0  0  0  0  0  0  0  0  0  0  0
    3.1967    1.6946    0.0000 N   0  0  0  0  0  0  0  0  0  0  0  0
    5.0198   -0.4464    0.0000 N   0  0  0  0  0  0  0  0  0  0  0  0
    4.3303    0.9217    0.0000 C   0  0  0  0  0  0  0  0  0  0  0  0
    3.0943    0.3265    0.0000 C   0  0  0  0  0  0  0  0  0  0  0  0
    3.9866    1.6354    0.0000 C   0  0  0  0  0  0  0  0  0  0  0  0
    2.7505    1.0402    0.0000 C   0  0  0  0  0  0  0  0  0  0  0  0
    4.2277   -0.4464    0.0000 C   0  0  0  0  0  0  0  0  0  0  0  0
    2.8531    2.4082    0.0000 C   0  0  0  0  0  0  0  0  0  0  0  0
    3.7338   -1.0656    0.0000 C   0  0  0  0  0  0  0  0  0  0  0  0
    3.9102   -1.8378    0.0000 C   0  0  0  0  0  0  0  0  0  0  0  0
    5.5136   -1.0656    0.0000 C   0  0  0  0  0  0  0  0  0  0  0  0
    2.9493   -0.8103    0.0000 C   0  0  0  0  0  0  0  0  0  0  0  0
    5.3375   -1.8378    0.0000 C   0  0  0  0  0  0  0  0  0  0  0  0
    3.3140   -2.4082    0.0000 C   0  0  0  0  0  0  0  0  0  0  0  0
    2.3402   -1.3668    0.0000 C   0  0  0  0  0  0  0  0  0  0  0  0
    2.5237   -2.1711    0.0000 C   0  0  0  0  0  0  0  0  0  0  0  0
    6.2983   -0.8103    0.0000 C   0  0  0  0  0  0  0  0  0  0  0  0
    5.9335   -2.4082    0.0000 C   0  0  0  0  0  0  0  0  0  0  0  0
    6.9074   -1.3669    0.0000 C   0  0  0  0  0  0  0  0  0  0  0  0
    6.7237   -2.1712    0.0000 C   0  0  0  0  0  0  0  0  0  0  0  0
    0.0000    0.0000    0.0000 H   0  0  0  0  0  0  0  0  0  0  0  0
    0.0000    0.0000    0.0000 H   0  0  0  0  0  0  0  0  0  0  0  0
    0.0000    0.0000    0.0000 H   0  0  0  0  0  0  0  0  0  0  0  0
    0.0000    0.0000    0.0000 H   0  0  0  0  0  0  0  0  0  0  0  0
    0.0000    0.0000    0.0000 H   0  0  0  0  0  0  0  0  0  0  0  0
    0.0000    0.0000    0.0000 H   0  0  0  0  0  0  0  0  0  0  0  0
    0.0000    0.0000    0.0000 H   0  0  0  0  0  0  0  0  0  0  0  0
    0.0000    0.0000    0.0000 H   0  0  0  0  0  0  0  0  0  0  0  0
    0.0000    0.0000    0.0000 H   0  0  0  0  0  0  0  0  0  0  0  0
    0.0000    0.0000    0.0000 H   0  0  0  0  0  0  0  0  0  0  0  0
    0.0000    0.0000    0.0000 H   0  0  0  0  0  0  0  0  0  0  0  0
    0.0000    0.0000    0.0000 H   0  0  0  0  0  0  0  0  0  0  0  0
    0.0000    0.0000    0.0000 H   0  0  0  0  0  0  0  0  0  0  0  0
    0.0000    0.0000    0.0000 H   0  0  0  0  0  0  0  0  0  0  0  0
    0.0000    0.0000    0.0000 H   0  0  0  0  0  0  0  0  0  0  0  0
    0.0000    0.0000    0.0000 H   0  0  0  0  0  0  0  0  0  0  0  0
    0.0000    0.0000    0.0000 H   0  0  0  0  0  0  0  0  0  0  0  0
    0.0000    0.0000    0.0000 H   0  0  0  0  0  0  0  0  0  0  0  0
  1 18  1  0
  2 13  1  0
  2 16  1  0
  3  6  1  0
  3  7  1  0
  3 10  1  0
  4  8  1  0
  4  9  1  0
  4 11  1  0
  5 10  2  0
  5 14  1  0
  6  8  1  0
  7  9  1  0
 10 12  1  0
 12 13  2  0
 12 15  1  0
 13 17  1  0
 14 16  2  0
 14 20  1  0
 15 18  2  0
 16 21  1  0
 17 19  2  0
 18 19  1  0
 20 22  2  0
 21 23  2  0
 22 23  1  0
  6 24  1  0
  6 25  1  0
  7 26  1  0
  7 27  1  0
  8 28  1  0
  8 29  1  0
  9 30  1  0
  9 31  1  0
 11 32  1  0
 11 33  1  0
 11 34  1  0
 15 35  1  0
 17 36  1  0
 19 37  1  0
 20 38  1  0
 21 39  1  0
 22 40  1  0
 23 41  1  0
M  END
>  <ALOGPS_LOGP>  (1) 
3.18

>  <ALOGPS_LOGS>  (1) 
-3.50

>  <ALOGPS_SOLUBILITY>  (1) 
1.03e-01 g/l

>  <DATABASE_ID>  (1) 
DB00408

>  <DATABASE_NAME>  (1) 
drugbank

>  <DRUGBANK_ID>  (1) 
DB00408

>  <DRUG_GROUPS>  (1) 
approved

>  <EXACT_MASS>  (1) 
327.11383992

>  <FORMULA>  (1) 
C18H18ClN3O

>  <GENERIC_NAME>  (1) 
Loxapine

>  <INCHI_IDENTIFIER>  (1) 
InChI=1S/C18H18ClN3O/c1-21-8-10-22(11-9-21)18-14-12-13(19)6-7-16(14)23-17-5-3-2-4-15(17)20-18/h2-7,12H,8-11H2,1H3

>  <INCHI_KEY>  (1) 
XJGVXQDUIWGIRW-UHFFFAOYSA-N

>  <INTERNATIONAL_BRANDS>  (1) 
Cloxazepine; Lopac; Losagen; Loxapac; Rosup

>  <JCHEM_ACCEPTOR_COUNT>  (1) 
3

>  <JCHEM_AVERAGE_POLARIZABILITY>  (1) 
34.985659606226186

>  <JCHEM_BIOAVAILABILITY>  (1) 
1

>  <JCHEM_DONOR_COUNT>  (1) 
0

>  <JCHEM_FORMAL_CHARGE>  (1) 
0

>  <JCHEM_GHOSE_FILTER>  (1) 
1

>  <JCHEM_IUPAC>  (1) 
13-chloro-10-(4-methylpiperazin-1-yl)-2-oxa-9-azatricyclo[9.4.0.0³,⁸]pentadeca-1(11),3,5,7,9,12,14-heptaene

>  <JCHEM_LOGP>  (1) 
3.4606024319999995

>  <JCHEM_MDDR_LIKE_RULE>  (1) 
0

>  <JCHEM_NUMBER_OF_RINGS>  (1) 
4

>  <JCHEM_PHYSIOLOGICAL_CHARGE>  (1) 
1

>  <JCHEM_PKA_STRONGEST_BASIC>  (1) 
7.175142290157757

>  <JCHEM_POLAR_SURFACE_AREA>  (1) 
28.07

>  <JCHEM_REFRACTIVITY>  (1) 
95.11110000000002

>  <JCHEM_ROTATABLE_BOND_COUNT>  (1) 
0

>  <JCHEM_RULE_OF_FIVE>  (1) 
1

>  <JCHEM_TRADITIONAL_IUPAC>  (1) 
loxapine

>  <JCHEM_VEBER_RULE>  (1) 
1

>  <MOLECULAR_WEIGHT>  (1) 
327.808

>  <PRODUCTS>  (1) 
Adasuve; Apo-loxapine; Dom-loxapine Tablets 10mg; Dom-loxapine Tablets 25mg; Dom-loxapine Tablets 50mg; Dom-loxapine Tablets 5mg; Loxapac - Tab 10mg; Loxapac - Tab 50mg; Loxapac - Tab 5mg; Loxapac Im; Loxapac Inj 50mg/ml; Loxapac Oral Concentrate-liq 25mg/ml; Loxapac Orl Conc 25mg/ml; Loxapac Tab 10mg; Loxapac Tab 25mg; Loxapac Tab 50mg; Loxapac Tab 5mg; Loxapac Tablets  -  25 mg; Loxapine; Loxapine Hydrochloride Im Injection 50mg/ml; Loxapine Hydrochloride Oral Concentrate 25mg/ml; Loxapine Succinate; Loxapine Succinate Tablets 10mg; Loxapine Succinate Tablets 25mg; Loxapine Succinate Tablets 5 mg; Loxapine Succinate Tablets 50mg; Loxapine-10; Loxapine-25; Loxapine-5; Loxapine-50; Loxitane; Nu-loxapine; PHL-loxapine; Xylac

>  <SALTS>  (1) 
Loxapine hydrochloride; Loxapine succinate

>  <SECONDARY_ACCESSION_NUMBERS>  (1) 
APRD00574

>  <SMILES>  (1) 
CN1CCN(CC1)C1=NC2=CC=CC=C2OC2=C1C=C(Cl)C=C2

>  <SYNONYMS>  (1) 
2-Chloro-11-(4-methyl-1-piperazinyl)dibenz[b,f][1,4]oxazepine; Loxapina; Loxapine; Loxapinum; oxilapine

$$$$
