178
     RDKit          2D

 62 64  0  0  1  0  0  0  0  0999 V2000
    2.8221   -1.1484    0.0000 O   0  0  0  0  0  0  0  0  0  0  0  0
    2.1616   -3.4866    0.0000 O   0  0  0  0  0  0  0  0  0  0  0  0
    2.1616   -2.0576    0.0000 O   0  0  0  0  0  0  0  0  0  0  0  0
    4.7754    2.0888    0.0000 O   0  0  0  0  0  0  0  0  0  0  0  0
    3.4163    1.6472    0.0000 O   0  0  0  0  0  0  0  0  0  0  0  0
    3.8841   -2.1046    0.0000 N   0  0  0  0  0  0  0  0  0  0  0  0
    3.9263    0.0779    0.0000 N   0  0  0  0  0  0  0  0  0  0  0  0
    4.6688   -3.1846    0.0000 C   0  0  0  0  0  0  0  0  0  0  0  0
    4.6688   -2.3595    0.0000 C   0  0  0  0  0  0  0  0  0  0  0  0
    3.8841   -3.4395    0.0000 C   0  0  0  0  0  0  0  0  0  0  0  0
    5.4495   -3.4360    0.0000 C   0  0  0  0  0  0  0  0  0  0  0  0
    5.4495   -2.1082    0.0000 C   0  0  0  0  0  0  0  0  0  0  0  0
    3.3992   -2.7721    0.0000 C   0  0  0  0  0  0  0  0  0  0  0  0
    5.9310   -2.7721    0.0000 C   0  0  0  0  0  0  0  0  0  0  0  0
    3.6292   -1.3199    0.0000 C   0  0  0  0  0  0  0  0  0  0  0  0
    2.5741   -2.7721    0.0000 C   0  0  0  0  0  0  0  0  0  0  0  0
    4.1812   -0.7068    0.0000 C   0  0  0  0  0  0  0  0  0  0  0  0
    4.9882   -0.8783    0.0000 C   0  0  0  0  0  0  0  0  0  0  0  0
    4.4783    0.6910    0.0000 C   0  0  0  0  0  0  0  0  0  0  0  0
    5.2854    0.5194    0.0000 C   0  0  0  0  0  0  0  0  0  0  0  0
    4.2234    1.4757    0.0000 C   0  0  0  0  0  0  0  0  0  0  0  0
    5.8374    1.1326    0.0000 C   0  0  0  0  0  0  0  0  0  0  0  0
    6.6444    0.9610    0.0000 C   0  0  0  0  0  0  0  0  0  0  0  0
    6.8994    0.1764    0.0000 C   0  0  0  0  0  0  0  0  0  0  0  0
    7.1965    1.5742    0.0000 C   0  0  0  0  0  0  0  0  0  0  0  0
    4.5205    2.8735    0.0000 C   0  0  0  0  0  0  0  0  0  0  0  0
    7.7064    0.0049    0.0000 C   0  0  0  0  0  0  0  0  0  0  0  0
    8.0035    1.4027    0.0000 C   0  0  0  0  0  0  0  0  0  0  0  0
    5.0725    3.4866    0.0000 C   0  0  0  0  0  0  0  0  0  0  0  0
    8.2584    0.6180    0.0000 C   0  0  0  0  0  0  0  0  0  0  0  0
    0.0000    0.0000    0.0000 H   0  0  0  0  0  0  0  0  0  0  0  0
    0.0000    0.0000    0.0000 H   0  0  0  0  0  0  0  0  0  0  0  0
    0.0000    0.0000    0.0000 H   0  0  0  0  0  0  0  0  0  0  0  0
    0.0000    0.0000    0.0000 H   0  0  0  0  0  0  0  0  0  0  0  0
    0.0000    0.0000    0.0000 H   0  0  0  0  0  0  0  0  0  0  0  0
    0.0000    0.0000    0.0000 H   0  0  0  0  0  0  0  0  0  0  0  0
    0.0000    0.0000    0.0000 H   0  0  0  0  0  0  0  0  0  0  0  0
    0.0000    0.0000    0.0000 H   0  0  0  0  0  0  0  0  0  0  0  0
    0.0000    0.0000    0.0000 H   0  0  0  0  0  0  0  0  0  0  0  0
    0.0000    0.0000    0.0000 H   0  0  0  0  0  0  0  0  0  0  0  0
    0.0000    0.0000    0.0000 H   0  0  0  0  0  0  0  0  0  0  0  0
    0.0000    0.0000    0.0000 H   0  0  0  0  0  0  0  0  0  0  0  0
    0.0000    0.0000    0.0000 H   0  0  0  0  0  0  0  0  0  0  0  0
    0.0000    0.0000    0.0000 H   0  0  0  0  0  0  0  0  0  0  0  0
    0.0000    0.0000    0.0000 H   0  0  0  0  0  0  0  0  0  0  0  0
    0.0000    0.0000    0.0000 H   0  0  0  0  0  0  0  0  0  0  0  0
    0.0000    0.0000    0.0000 H   0  0  0  0  0  0  0  0  0  0  0  0
    0.0000    0.0000    0.0000 H   0  0  0  0  0  0  0  0  0  0  0  0
    0.0000    0.0000    0.0000 H   0  0  0  0  0  0  0  0  0  0  0  0
    0.0000    0.0000    0.0000 H   0  0  0  0  0  0  0  0  0  0  0  0
    0.0000    0.0000    0.0000 H   0  0  0  0  0  0  0  0  0  0  0  0
    0.0000    0.0000    0.0000 H   0  0  0  0  0  0  0  0  0  0  0  0
    0.0000    0.0000    0.0000 H   0  0  0  0  0  0  0  0  0  0  0  0
    0.0000    0.0000    0.0000 H   0  0  0  0  0  0  0  0  0  0  0  0
    0.0000    0.0000    0.0000 H   0  0  0  0  0  0  0  0  0  0  0  0
    0.0000    0.0000    0.0000 H   0  0  0  0  0  0  0  0  0  0  0  0
    0.0000    0.0000    0.0000 H   0  0  0  0  0  0  0  0  0  0  0  0
    0.0000    0.0000    0.0000 H   0  0  0  0  0  0  0  0  0  0  0  0
    0.0000    0.0000    0.0000 H   0  0  0  0  0  0  0  0  0  0  0  0
    0.0000    0.0000    0.0000 H   0  0  0  0  0  0  0  0  0  0  0  0
    0.0000    0.0000    0.0000 H   0  0  0  0  0  0  0  0  0  0  0  0
    0.0000    0.0000    0.0000 H   0  0  0  0  0  0  0  0  0  0  0  0
  1 15  2  0
  2 16  1  0
  3 16  2  0
  4 21  1  0
  4 26  1  0
  5 21  2  0
  6  9  1  0
  6 13  1  0
  6 15  1  0
 17  7  1  1
 19  7  1  6
  8  9  1  0
  8 10  1  0
  8 11  1  0
  9 12  1  0
 10 13  1  0
 11 14  1  0
 12 14  1  0
 13 16  1  1
 15 17  1  0
 17 18  1  0
 19 20  1  0
 19 21  1  0
 20 22  1  0
 22 23  1  0
 23 24  2  0
 23 25  1  0
 24 27  1  0
 25 28  2  0
 26 29  1  0
 27 30  2  0
 28 30  1  0
  2 31  1  0
  7 32  1  0
  8 33  1  6
  9 34  1  6
 10 35  1  0
 10 36  1  0
 11 37  1  0
 11 38  1  0
 12 39  1  0
 12 40  1  0
 13 41  1  0
 14 42  1  0
 14 43  1  0
 17 44  1  0
 18 45  1  0
 18 46  1  0
 18 47  1  0
 19 48  1  0
 20 49  1  0
 20 50  1  0
 22 51  1  0
 22 52  1  0
 24 53  1  0
 25 54  1  0
 26 55  1  0
 26 56  1  0
 27 57  1  0
 28 58  1  0
 29 59  1  0
 29 60  1  0
 29 61  1  0
 30 62  1  0
M  END
>  <ALOGPS_LOGP>  (1) 
0.92

>  <ALOGPS_LOGS>  (1) 
-4.03

>  <ALOGPS_SOLUBILITY>  (1) 
3.90e-02 g/l

>  <DATABASE_ID>  (1) 
DB00178

>  <DATABASE_NAME>  (1) 
drugbank

>  <DRUGBANK_ID>  (1) 
DB00178

>  <DRUG_GROUPS>  (1) 
approved

>  <EXACT_MASS>  (1) 
416.231122144

>  <FORMULA>  (1) 
C23H32N2O5

>  <GENERIC_NAME>  (1) 
Ramipril

>  <INCHI_IDENTIFIER>  (1) 
InChI=1S/C23H32N2O5/c1-3-30-23(29)18(13-12-16-8-5-4-6-9-16)24-15(2)21(26)25-19-11-7-10-17(19)14-20(25)22(27)28/h4-6,8-9,15,17-20,24H,3,7,10-14H2,1-2H3,(H,27,28)/t15-,17-,18-,19-,20-/m0/s1

>  <INCHI_KEY>  (1) 
HDACQVRGBOVJII-JBDAPHQKSA-N

>  <INTERNATIONAL_BRANDS>  (1) 
Acovil; Carasel; Cardace; Delix; Hypren; Lostapres; Pramace; Quark; Triatec; Tritace; Vesdil

>  <JCHEM_ACCEPTOR_COUNT>  (1) 
5

>  <JCHEM_AVERAGE_POLARIZABILITY>  (1) 
44.77822453247945

>  <JCHEM_BIOAVAILABILITY>  (1) 
1

>  <JCHEM_DONOR_COUNT>  (1) 
2

>  <JCHEM_FORMAL_CHARGE>  (1) 
0

>  <JCHEM_GHOSE_FILTER>  (1) 
1

>  <JCHEM_IUPAC>  (1) 
(2S,3aS,6aS)-1-[(2S)-2-{[(2S)-1-ethoxy-1-oxo-4-phenylbutan-2-yl]amino}propanoyl]-octahydrocyclopenta[b]pyrrole-2-carboxylic acid

>  <JCHEM_LOGP>  (1) 
1.4738114378387788

>  <JCHEM_MDDR_LIKE_RULE>  (1) 
1

>  <JCHEM_NUMBER_OF_RINGS>  (1) 
3

>  <JCHEM_PHYSIOLOGICAL_CHARGE>  (1) 
-1

>  <JCHEM_PKA_STRONGEST_ACIDIC>  (1) 
3.7489298896886947

>  <JCHEM_PKA_STRONGEST_BASIC>  (1) 
5.203591906368742

>  <JCHEM_POLAR_SURFACE_AREA>  (1) 
95.93999999999998

>  <JCHEM_REFRACTIVITY>  (1) 
111.18680000000002

>  <JCHEM_ROTATABLE_BOND_COUNT>  (1) 
10

>  <JCHEM_RULE_OF_FIVE>  (1) 
1

>  <JCHEM_TRADITIONAL_IUPAC>  (1) 
ramipril

>  <JCHEM_VEBER_RULE>  (1) 
0

>  <MOLECULAR_WEIGHT>  (1) 
416.5106

>  <PRODUCTS>  (1) 
Ach-ramipril; Act Ramipril; Altace; Altace Cap 1.25mg; Altace Cap 10mg; Altace Cap 2.5mg; Altace Cap 5mg; Altace Hct; Altace Plus Felodipine 2.5mg + 2.5mg; Altace Plus Felodipine 5mg + 5mg; Apo-ramipril; Apo-ramipril/hctz; Auro-ramipril; Ava-ramipril; Bio-ramipril; Dom-ramipril; Ipg-ramipril; Jamp-ramipril; Mar-ramipril; Mint-ramipril; Mylan-ramipril; Ntp-ramipril; PMS-ramipril; PMS-ramipril-hctz; Pharma-ramipril; Priva-ramipril; Pro-ramipril - 1.25; Pro-ramipril - 10; Pro-ramipril - 2.5; Pro-ramipril - 5; Prv-ramipril; Ramace; Ramipril; Ramipril Capsules; Ramipril-10; Ramipril-2.5; Ramipril-5; Ramipril-hctz; Ran-ramipril; Ran-ramipril Hctz; Ratio-ramipril; Rbx-ramipril; Sandoz Ramipril; Teva-ramipril; Teva-ramipril/hctz; Van-ramipril

>  <SECONDARY_ACCESSION_NUMBERS>  (1) 
APRD00009

>  <SMILES>  (1) 
[H][C@@]12CCC[C@]1([H])N([C@@H](C2)C(O)=O)C(=O)[C@H](C)N[C@@H](CCC1=CC=CC=C1)C(=O)OCC

>  <SYNONYMS>  (1) 
Ramiprilum

$$$$
