978
     RDKit          2D

 44 46  0  0  1  0  0  0  0  0999 V2000
    4.9508   -1.0455    0.0000 F   0  0  0  0  0  0  0  0  0  0  0  0
    3.5219    1.4295    0.0000 F   0  0  0  0  0  0  0  0  0  0  0  0
    6.3933    2.2830    0.0000 O   0  0  0  0  0  0  0  0  0  0  0  0
    8.5793    1.0397    0.0000 O   0  0  0  0  0  0  0  0  0  0  0  0
    7.8600    2.2744    0.0000 O   0  0  0  0  0  0  0  0  0  0  0  0
    3.5219   -0.2205    0.0000 N   0  0  0  0  0  0  0  0  0  0  0  0
    2.0929   -1.0455    0.0000 N   0  0  0  0  0  0  0  0  0  0  0  0
    6.4028   -0.2492    0.0000 N   0  0  0  0  0  0  0  0  0  0  0  0
    2.8075   -1.4580    0.0000 C   0  0  0  0  0  0  0  0  0  0  0  0
    3.5219   -1.0455    0.0000 C   0  0  0  0  0  0  0  0  0  0  0  0
    2.8075    0.1920    0.0000 C   0  0  0  0  0  0  0  0  0  0  0  0
    2.0929   -0.2205    0.0000 C   0  0  0  0  0  0  0  0  0  0  0  0
    4.2364    0.1920    0.0000 C   0  0  0  0  0  0  0  0  0  0  0  0
    2.8075   -2.2830    0.0000 C   0  0  0  0  0  0  0  0  0  0  0  0
    4.9508   -0.2205    0.0000 C   0  0  0  0  0  0  0  0  0  0  0  0
    5.6654    0.1920    0.0000 C   0  0  0  0  0  0  0  0  0  0  0  0
    4.2364    1.0170    0.0000 C   0  0  0  0  0  0  0  0  0  0  0  0
    5.6654    1.0170    0.0000 C   0  0  0  0  0  0  0  0  0  0  0  0
    4.9508    1.4295    0.0000 C   0  0  0  0  0  0  0  0  0  0  0  0
    6.3933   -1.0741    0.0000 C   0  0  0  0  0  0  0  0  0  0  0  0
    6.4028    1.4581    0.0000 C   0  0  0  0  0  0  0  0  0  0  0  0
    7.1504    0.1748    0.0000 C   0  0  0  0  0  0  0  0  0  0  0  0
    7.1504    1.0341    0.0000 C   0  0  0  0  0  0  0  0  0  0  0  0
    7.1029   -1.4948    0.0000 C   0  0  0  0  0  0  0  0  0  0  0  0
    7.8632    1.4494    0.0000 C   0  0  0  0  0  0  0  0  0  0  0  0
    0.0000    0.0000    0.0000 H   0  0  0  0  0  0  0  0  0  0  0  0
    0.0000    0.0000    0.0000 H   0  0  0  0  0  0  0  0  0  0  0  0
    0.0000    0.0000    0.0000 H   0  0  0  0  0  0  0  0  0  0  0  0
    0.0000    0.0000    0.0000 H   0  0  0  0  0  0  0  0  0  0  0  0
    0.0000    0.0000    0.0000 H   0  0  0  0  0  0  0  0  0  0  0  0
    0.0000    0.0000    0.0000 H   0  0  0  0  0  0  0  0  0  0  0  0
    0.0000    0.0000    0.0000 H   0  0  0  0  0  0  0  0  0  0  0  0
    0.0000    0.0000    0.0000 H   0  0  0  0  0  0  0  0  0  0  0  0
    0.0000    0.0000    0.0000 H   0  0  0  0  0  0  0  0  0  0  0  0
    0.0000    0.0000    0.0000 H   0  0  0  0  0  0  0  0  0  0  0  0
    0.0000    0.0000    0.0000 H   0  0  0  0  0  0  0  0  0  0  0  0
    0.0000    0.0000    0.0000 H   0  0  0  0  0  0  0  0  0  0  0  0
    0.0000    0.0000    0.0000 H   0  0  0  0  0  0  0  0  0  0  0  0
    0.0000    0.0000    0.0000 H   0  0  0  0  0  0  0  0  0  0  0  0
    0.0000    0.0000    0.0000 H   0  0  0  0  0  0  0  0  0  0  0  0
    0.0000    0.0000    0.0000 H   0  0  0  0  0  0  0  0  0  0  0  0
    0.0000    0.0000    0.0000 H   0  0  0  0  0  0  0  0  0  0  0  0
    0.0000    0.0000    0.0000 H   0  0  0  0  0  0  0  0  0  0  0  0
    0.0000    0.0000    0.0000 H   0  0  0  0  0  0  0  0  0  0  0  0
  1 15  1  0
  2 17  1  0
  3 21  2  0
  4 25  1  0
  5 25  2  0
  6 10  1  0
  6 11  1  0
  6 13  1  0
  7  9  1  0
  7 12  1  0
  8 16  1  0
  8 20  1  0
  8 22  1  0
  9 10  1  0
  9 14  1  0
 11 12  1  0
 13 15  1  0
 13 17  2  0
 15 16  2  0
 16 18  1  0
 17 19  1  0
 18 19  2  0
 18 21  1  0
 20 24  1  0
 21 23  1  0
 22 23  2  0
 23 25  1  0
  4 26  1  0
  7 27  1  0
  9 28  1  0
 10 29  1  0
 10 30  1  0
 11 31  1  0
 11 32  1  0
 12 33  1  0
 12 34  1  0
 14 35  1  0
 14 36  1  0
 14 37  1  0
 19 38  1  0
 20 39  1  0
 20 40  1  0
 22 41  1  0
 24 42  1  0
 24 43  1  0
 24 44  1  0
M  END
>  <ALOGPS_LOGP>  (1) 
-0.00

>  <ALOGPS_LOGS>  (1) 
-3.52

>  <ALOGPS_SOLUBILITY>  (1) 
1.06e-01 g/l

>  <DATABASE_ID>  (1) 
DB00978

>  <DATABASE_NAME>  (1) 
drugbank

>  <DRUGBANK_ID>  (1) 
DB00978

>  <DRUG_GROUPS>  (1) 
approved; investigational

>  <EXACT_MASS>  (1) 
351.139447899

>  <FORMULA>  (1) 
C17H19F2N3O3

>  <GENERIC_NAME>  (1) 
Lomefloxacin

>  <INCHI_IDENTIFIER>  (1) 
InChI=1S/C17H19F2N3O3/c1-3-21-8-11(17(24)25)16(23)10-6-12(18)15(13(19)14(10)21)22-5-4-20-9(2)7-22/h6,8-9,20H,3-5,7H2,1-2H3,(H,24,25)

>  <INCHI_KEY>  (1) 
ZEKZLJVOYLTDKK-UHFFFAOYSA-N

>  <INTERNATIONAL_BRANDS>  (1) 
Bareon; Maxaquin

>  <JCHEM_ACCEPTOR_COUNT>  (1) 
6

>  <JCHEM_AVERAGE_POLARIZABILITY>  (1) 
34.79721782595669

>  <JCHEM_BIOAVAILABILITY>  (1) 
1

>  <JCHEM_DONOR_COUNT>  (1) 
2

>  <JCHEM_FORMAL_CHARGE>  (1) 
0

>  <JCHEM_GHOSE_FILTER>  (1) 
1

>  <JCHEM_IUPAC>  (1) 
1-ethyl-6,8-difluoro-7-(3-methylpiperazin-1-yl)-4-oxo-1,4-dihydroquinoline-3-carboxylic acid

>  <JCHEM_LOGP>  (1) 
-0.38977589433377624

>  <JCHEM_MDDR_LIKE_RULE>  (1) 
0

>  <JCHEM_NUMBER_OF_RINGS>  (1) 
3

>  <JCHEM_PHYSIOLOGICAL_CHARGE>  (1) 
0

>  <JCHEM_PKA_STRONGEST_ACIDIC>  (1) 
5.643254803392478

>  <JCHEM_PKA_STRONGEST_BASIC>  (1) 
8.69662158469314

>  <JCHEM_POLAR_SURFACE_AREA>  (1) 
72.88

>  <JCHEM_REFRACTIVITY>  (1) 
90.11200000000001

>  <JCHEM_ROTATABLE_BOND_COUNT>  (1) 
3

>  <JCHEM_RULE_OF_FIVE>  (1) 
1

>  <JCHEM_TRADITIONAL_IUPAC>  (1) 
lomefloxacin

>  <JCHEM_VEBER_RULE>  (1) 
0

>  <MOLECULAR_WEIGHT>  (1) 
351.3479

>  <SALTS>  (1) 
Lomefloxacin hydrochloride

>  <SECONDARY_ACCESSION_NUMBERS>  (1) 
APRD01076

>  <SMILES>  (1) 
CCN1C=C(C(O)=O)C(=O)C2=CC(F)=C(N3CCNC(C)C3)C(F)=C12

>  <SYNONYMS>  (1) 
LFLX; Lomefloxacine; Lomefloxacino; Lomefloxacinum

$$$$
