
     RDKit          2D

 38 39  0  0  0  0  0  0  0  0999 V2000
   -2.4455   -0.9723    0.0000 C   0  0  0  0  0  0  0  0  0  0  0  0
   -3.1600   -1.3848    0.0000 C   0  0  0  0  0  0  0  0  0  0  0  0
   -3.1600   -2.2098    0.0000 C   0  0  0  0  0  0  0  0  0  0  0  0
   -2.4455   -2.6223    0.0000 C   0  0  0  0  0  0  0  0  0  0  0  0
   -1.7311   -2.2098    0.0000 C   0  0  0  0  0  0  0  0  0  0  0  0
   -1.7311   -1.3848    0.0000 C   0  0  0  0  0  0  0  0  0  0  0  0
   -3.8745   -2.6223    0.0000 O   0  0  0  0  0  0  0  0  0  0  0  0
   -1.0166   -0.9723    0.0000 C   0  0  0  0  0  0  0  0  0  0  0  0
   -0.3021   -1.3848    0.0000 C   0  0  0  0  0  0  0  0  0  0  0  0
    0.4123   -0.9723    0.0000 C   0  0  0  0  0  0  0  0  0  0  0  0
   -1.0166   -0.1473    0.0000 C   0  0  0  0  0  0  0  0  0  0  0  0
   -0.3021   -2.2098    0.0000 C   0  0  0  0  0  0  0  0  0  0  0  0
    1.1268    0.2652    0.0000 C   0  0  0  0  0  0  0  0  0  0  0  0
    0.4123   -0.1473    0.0000 C   0  0  0  0  0  0  0  0  0  0  0  0
    1.1268   -1.3848    0.0000 C   0  0  0  0  0  0  0  0  0  0  0  0
    1.8413   -0.9723    0.0000 C   0  0  0  0  0  0  0  0  0  0  0  0
    1.8413   -0.1473    0.0000 C   0  0  0  0  0  0  0  0  0  0  0  0
   -1.7311    0.2652    0.0000 C   0  0  0  0  0  0  0  0  0  0  0  0
    0.4123   -2.6223    0.0000 C   0  0  0  0  0  0  0  0  0  0  0  0
    2.5558    0.2652    0.0000 O   0  0  0  0  0  0  0  0  0  0  0  0
    0.0000    0.0000    0.0000 H   0  0  0  0  0  0  0  0  0  0  0  0
    0.0000    0.0000    0.0000 H   0  0  0  0  0  0  0  0  0  0  0  0
    0.0000    0.0000    0.0000 H   0  0  0  0  0  0  0  0  0  0  0  0
    0.0000    0.0000    0.0000 H   0  0  0  0  0  0  0  0  0  0  0  0
    0.0000    0.0000    0.0000 H   0  0  0  0  0  0  0  0  0  0  0  0
    0.0000    0.0000    0.0000 H   0  0  0  0  0  0  0  0  0  0  0  0
    0.0000    0.0000    0.0000 H   0  0  0  0  0  0  0  0  0  0  0  0
    0.0000    0.0000    0.0000 H   0  0  0  0  0  0  0  0  0  0  0  0
    0.0000    0.0000    0.0000 H   0  0  0  0  0  0  0  0  0  0  0  0
    0.0000    0.0000    0.0000 H   0  0  0  0  0  0  0  0  0  0  0  0
    0.0000    0.0000    0.0000 H   0  0  0  0  0  0  0  0  0  0  0  0
    0.0000    0.0000    0.0000 H   0  0  0  0  0  0  0  0  0  0  0  0
    0.0000    0.0000    0.0000 H   0  0  0  0  0  0  0  0  0  0  0  0
    0.0000    0.0000    0.0000 H   0  0  0  0  0  0  0  0  0  0  0  0
    0.0000    0.0000    0.0000 H   0  0  0  0  0  0  0  0  0  0  0  0
    0.0000    0.0000    0.0000 H   0  0  0  0  0  0  0  0  0  0  0  0
    0.0000    0.0000    0.0000 H   0  0  0  0  0  0  0  0  0  0  0  0
    0.0000    0.0000    0.0000 H   0  0  0  0  0  0  0  0  0  0  0  0
  1  2  2  0
  1  6  1  0
  2  3  1  0
  3  4  2  0
  4  5  1  0
  5  6  2  0
  3  7  1  0
  6  8  1  0
  8  9  1  0
  9 10  1  0
  8 11  2  3
  9 12  2  3
 14 10  1  0
 10 15  2  0
 13 14  2  0
 13 17  1  0
 15 16  1  0
 16 17  2  0
 11 18  1  0
 12 19  1  0
 17 20  1  0
  1 21  1  0
  2 22  1  0
  4 23  1  0
  5 24  1  0
  7 25  1  0
 11 26  1  0
 12 27  1  0
 13 28  1  0
 14 29  1  0
 15 30  1  0
 16 31  1  0
 18 32  1  0
 18 33  1  0
 18 34  1  0
 19 35  1  0
 19 36  1  0
 19 37  1  0
 20 38  1  0
M  END
>  <ALOGPS_LOGP>  (1) 
5.18

>  <ALOGPS_LOGS>  (1) 
-4.33

>  <ALOGPS_SOLUBILITY>  (1) 
1.23e-02 g/l

>  <DATABASE_ID>  (1) 
DB00890

>  <DATABASE_NAME>  (1) 
drugbank

>  <DRUGBANK_ID>  (1) 
DB00890

>  <DRUG_GROUPS>  (1) 
approved; investigational

>  <EXACT_MASS>  (1) 
266.13067982

>  <FORMULA>  (1) 
C18H18O2

>  <GENERIC_NAME>  (1) 
Dienestrol

>  <INCHI_IDENTIFIER>  (1) 
InChI=1S/C18H18O2/c1-3-17(13-5-9-15(19)10-6-13)18(4-2)14-7-11-16(20)12-8-14/h3-12,19-20H,1-2H3

>  <INCHI_KEY>  (1) 
NFDFQCUYFHCNBW-UHFFFAOYSA-N

>  <INTERNATIONAL_BRANDS>  (1) 
Ortho Dienestrol; Sexadien

>  <JCHEM_ACCEPTOR_COUNT>  (1) 
2

>  <JCHEM_AVERAGE_POLARIZABILITY>  (1) 
30.302238966883753

>  <JCHEM_BIOAVAILABILITY>  (1) 
1

>  <JCHEM_DONOR_COUNT>  (1) 
2

>  <JCHEM_FORMAL_CHARGE>  (1) 
0

>  <JCHEM_GHOSE_FILTER>  (1) 
1

>  <JCHEM_IUPAC>  (1) 
4-[4-(4-hydroxyphenyl)hexa-2,4-dien-3-yl]phenol

>  <JCHEM_LOGP>  (1) 
4.831961091333333

>  <JCHEM_MDDR_LIKE_RULE>  (1) 
0

>  <JCHEM_NUMBER_OF_RINGS>  (1) 
2

>  <JCHEM_PHYSIOLOGICAL_CHARGE>  (1) 
0

>  <JCHEM_PKA>  (1) 
9.701624901640892

>  <JCHEM_PKA_STRONGEST_ACIDIC>  (1) 
9.099340202888508

>  <JCHEM_PKA_STRONGEST_BASIC>  (1) 
-5.963491272451223

>  <JCHEM_POLAR_SURFACE_AREA>  (1) 
40.46

>  <JCHEM_REFRACTIVITY>  (1) 
84.3572

>  <JCHEM_ROTATABLE_BOND_COUNT>  (1) 
3

>  <JCHEM_RULE_OF_FIVE>  (1) 
1

>  <JCHEM_TRADITIONAL_IUPAC>  (1) 
di(p-oxyphenyl)-2,4-hexadiene

>  <JCHEM_VEBER_RULE>  (1) 
0

>  <MOLECULAR_WEIGHT>  (1) 
266.3343

>  <PRODUCTS>  (1) 
Ortho Dienestrol Crm

>  <SALTS>  (1) 
Dienestrol diacetate

>  <SECONDARY_ACCESSION_NUMBERS>  (1) 
APRD00917

>  <SMILES>  (1) 
CC=C(C(=CC)C1=CC=C(O)C=C1)C1=CC=C(O)C=C1

>  <SYNONYMS>  (1) 
alpha-dienestrol diacetate; Cycladiene; Dehydrostilbestrol; Dienestrol; Di√®nestrol; Dienestrolum; DV

$$$$
