
     RDKit          2D

 32 32  0  0  1  0  0  0  0  0999 V2000
    1.8711    0.1658    0.0000 O   0  0  0  0  0  0  0  0  0  0  0  0
    4.7291    0.1658    0.0000 O   0  0  0  0  0  0  0  0  0  0  0  0
    3.3001   -2.3092    0.0000 O   0  0  0  0  0  0  0  0  0  0  0  0
    2.5856   -1.0717    0.0000 N   0  0  0  0  0  0  0  0  0  0  0  0
    4.0145   -1.0717    0.0000 N   0  0  0  0  0  0  0  0  0  0  0  0
    3.3001    0.1658    0.0000 C   0  0  0  0  0  0  0  0  0  0  0  0
    3.7126    0.8803    0.0000 C   0  0  0  0  0  0  0  0  0  0  0  0
    2.8876    0.8803    0.0000 C   0  0  0  0  0  0  0  0  0  0  0  0
    3.3001    1.5948    0.0000 C   0  0  0  0  0  0  0  0  0  0  0  0
    2.5856   -0.2467    0.0000 C   0  0  0  0  0  0  0  0  0  0  0  0
    4.0145   -0.2467    0.0000 C   0  0  0  0  0  0  0  0  0  0  0  0
    4.5376    0.8803    0.0000 C   0  0  0  0  0  0  0  0  0  0  0  0
    3.3001   -1.4842    0.0000 C   0  0  0  0  0  0  0  0  0  0  0  0
    3.7126    2.3092    0.0000 C   0  0  0  0  0  0  0  0  0  0  0  0
    2.0625    0.8803    0.0000 C   0  0  0  0  0  0  0  0  0  0  0  0
    1.6500    1.5948    0.0000 C   0  0  0  0  0  0  0  0  0  0  0  0
    0.0000    0.0000    0.0000 H   0  0  0  0  0  0  0  0  0  0  0  0
    0.0000    0.0000    0.0000 H   0  0  0  0  0  0  0  0  0  0  0  0
    0.0000    0.0000    0.0000 H   0  0  0  0  0  0  0  0  0  0  0  0
    0.0000    0.0000    0.0000 H   0  0  0  0  0  0  0  0  0  0  0  0
    0.0000    0.0000    0.0000 H   0  0  0  0  0  0  0  0  0  0  0  0
    0.0000    0.0000    0.0000 H   0  0  0  0  0  0  0  0  0  0  0  0
    0.0000    0.0000    0.0000 H   0  0  0  0  0  0  0  0  0  0  0  0
    0.0000    0.0000    0.0000 H   0  0  0  0  0  0  0  0  0  0  0  0
    0.0000    0.0000    0.0000 H   0  0  0  0  0  0  0  0  0  0  0  0
    0.0000    0.0000    0.0000 H   0  0  0  0  0  0  0  0  0  0  0  0
    0.0000    0.0000    0.0000 H   0  0  0  0  0  0  0  0  0  0  0  0
    0.0000    0.0000    0.0000 H   0  0  0  0  0  0  0  0  0  0  0  0
    0.0000    0.0000    0.0000 H   0  0  0  0  0  0  0  0  0  0  0  0
    0.0000    0.0000    0.0000 H   0  0  0  0  0  0  0  0  0  0  0  0
    0.0000    0.0000    0.0000 H   0  0  0  0  0  0  0  0  0  0  0  0
    0.0000    0.0000    0.0000 H   0  0  0  0  0  0  0  0  0  0  0  0
  1 10  2  0
  2 11  2  0
  3 13  2  0
  4 10  1  0
  4 13  1  0
  5 11  1  0
  5 13  1  0
  6  7  1  0
  6  8  1  0
  6 10  1  0
  6 11  1  0
  7  9  1  0
  7 12  1  0
  8 15  1  0
  9 14  1  0
 15 16  2  3
  4 17  1  0
  5 18  1  0
  7 19  1  0
  8 20  1  0
  8 21  1  0
  9 22  1  0
  9 23  1  0
 12 24  1  0
 12 25  1  0
 12 26  1  0
 14 27  1  0
 14 28  1  0
 14 29  1  0
 15 30  1  0
 16 31  1  0
 16 32  1  0
M  END
>  <ALOGPS_LOGP>  (1) 
1.87

>  <ALOGPS_LOGS>  (1) 
-1.96

>  <ALOGPS_SOLUBILITY>  (1) 
2.46e+00 g/l

>  <DATABASE_ID>  (1) 
DB00306

>  <DATABASE_NAME>  (1) 
drugbank

>  <DRUGBANK_ID>  (1) 
DB00306

>  <DRUG_GROUPS>  (1) 
approved; illicit

>  <EXACT_MASS>  (1) 
224.116092388

>  <FORMULA>  (1) 
C11H16N2O3

>  <GENERIC_NAME>  (1) 
Talbutal

>  <INCHI_IDENTIFIER>  (1) 
InChI=1S/C11H16N2O3/c1-4-6-11(7(3)5-2)8(14)12-10(16)13-9(11)15/h4,7H,1,5-6H2,2-3H3,(H2,12,13,14,15,16)

>  <INCHI_KEY>  (1) 
BJVVMKUXKQHWJK-UHFFFAOYSA-N

>  <INTERNATIONAL_BRANDS>  (1) 
Lotusate

>  <JCHEM_ACCEPTOR_COUNT>  (1) 
3

>  <JCHEM_AVERAGE_POLARIZABILITY>  (1) 
22.482020735327588

>  <JCHEM_BIOAVAILABILITY>  (1) 
1

>  <JCHEM_DONOR_COUNT>  (1) 
2

>  <JCHEM_FORMAL_CHARGE>  (1) 
0

>  <JCHEM_GHOSE_FILTER>  (1) 
1

>  <JCHEM_IUPAC>  (1) 
5-(butan-2-yl)-5-(prop-2-en-1-yl)-1,3-diazinane-2,4,6-trione

>  <JCHEM_LOGP>  (1) 
1.5892632603333325

>  <JCHEM_MDDR_LIKE_RULE>  (1) 
0

>  <JCHEM_NUMBER_OF_RINGS>  (1) 
1

>  <JCHEM_PHYSIOLOGICAL_CHARGE>  (1) 
0

>  <JCHEM_PKA>  (1) 
12.14833825700984

>  <JCHEM_PKA_STRONGEST_ACIDIC>  (1) 
8.478768535925882

>  <JCHEM_POLAR_SURFACE_AREA>  (1) 
75.27

>  <JCHEM_REFRACTIVITY>  (1) 
58.047

>  <JCHEM_ROTATABLE_BOND_COUNT>  (1) 
4

>  <JCHEM_RULE_OF_FIVE>  (1) 
1

>  <JCHEM_TRADITIONAL_IUPAC>  (1) 
talbutal

>  <JCHEM_VEBER_RULE>  (1) 
0

>  <MOLECULAR_WEIGHT>  (1) 
224.2563

>  <SECONDARY_ACCESSION_NUMBERS>  (1) 
APRD01333

>  <SMILES>  (1) 
CCC(C)C1(CC=C)C(=O)NC(=O)NC1=O

>  <SYNONYMS>  (1) 
(RS)-5-allyl-5-sec-butylpyrimidine-2,4,6(1H,3H,5H)-trione; 5-allyl-5-sec-butylbarbituric acid; Talbutale; Talbutalum

$$$$
