
     RDKit          2D

181192  0  0  0  0  0  0  0  0999 V2000
   -1.0291    0.5487    0.0000 C   0  0  0  0  0  0  0  0  0  0  0  0
   -1.1410    1.3522    0.0000 N   0  0  0  0  0  0  0  0  0  0  0  0
   -1.1410    3.0503    0.0000 N   0  0  0  0  0  0  0  0  0  0  0  0
   -1.0291    3.8539    0.0000 C   0  0  0  0  0  0  0  0  0  0  0  0
   -1.7415    4.2306    0.0000 C   0  0  0  0  0  0  0  0  0  0  0  0
   -1.8599    5.0471    0.0000 C   0  0  0  0  0  0  0  0  0  0  0  0
   -1.2121    5.5580    0.0000 C   0  0  0  0  0  0  0  0  0  0  0  0
   -1.3306    6.3744    0.0000 C   0  0  0  0  0  0  0  0  0  0  0  0
   -2.0968    6.6799    0.0000 O   0  0  0  0  0  0  0  0  0  0  0  0
    0.4120    3.8539    0.0000 C   0  0  0  0  0  0  0  0  0  0  0  0
    0.5363    3.0503    0.0000 N   0  0  0  0  0  0  0  0  0  0  0  0
    1.3605    2.9012    0.0000 C   0  0  0  0  0  0  0  0  0  0  0  0
    1.7746    2.2012    0.0000 C   0  0  0  0  0  0  0  0  0  0  0  0
    1.3605    1.4971    0.0000 C   0  0  0  0  0  0  0  0  0  0  0  0
    0.5363    1.3522    0.0000 N   0  0  0  0  0  0  0  0  0  0  0  0
    0.4120    0.5487    0.0000 C   0  0  0  0  0  0  0  0  0  0  0  0
    1.1493    0.1677    0.0000 C   0  0  0  0  0  0  0  0  0  0  0  0
    1.2716   -0.6481    0.0000 C   0  0  0  0  0  0  0  0  0  0  0  0
    2.0394   -0.9500    0.0000 C   0  0  0  0  0  0  0  0  0  0  0  0
    2.1618   -1.7659    0.0000 C   0  0  0  0  0  0  0  0  0  0  0  0
    2.9294   -2.0679    0.0000 O   0  0  0  0  0  0  0  0  0  0  0  0
    1.7415    0.7475    0.0000 C   0  0  0  0  0  0  0  0  0  0  0  0
    2.3797    0.2246    0.0000 C   0  0  0  0  0  0  0  0  0  0  0  0
    2.5134    1.0387    0.0000 C   0  0  0  0  0  0  0  0  0  0  0  0
   -0.2919    4.2637    0.0000 C   0  0  0  0  0  0  0  0  0  0  0  0
   -0.2919    5.0887    0.0000 C   0  0  0  0  0  0  0  0  0  0  0  0
   -0.2919    0.1345    0.0000 C   0  0  0  0  0  0  0  0  0  0  0  0
   -0.2919   -0.6904    0.0000 C   0  0  0  0  0  0  0  0  0  0  0  0
   -1.9527    1.4971    0.0000 C   0  0  0  0  0  0  0  0  0  0  0  0
   -1.9527    2.9260    0.0000 C   0  0  0  0  0  0  0  0  0  0  0  0
   -2.7496    2.7125    0.0000 C   0  0  0  0  0  0  0  0  0  0  0  0
   -2.4560   -1.0697    0.0000 C   0  0  0  0  0  0  0  0  0  0  0  0
   -3.1704   -1.4822    0.0000 C   0  0  0  0  0  0  0  0  0  0  0  0
   -3.8849   -1.0697    0.0000 O   0  0  0  0  0  0  0  0  0  0  0  0
   -3.1704   -2.3072    0.0000 N   0  0  0  0  0  0  0  0  0  0  0  0
   -3.8849   -2.7197    0.0000 C   0  0  0  0  0  0  0  0  0  0  0  0
   -3.8849   -3.5447    0.0000 C   0  0  0  0  0  0  0  0  0  0  0  0
   -2.4560   -0.2447    0.0000 C   0  0  0  0  0  0  0  0  0  0  0  0
   -1.7415    0.1677    0.0000 C   0  0  0  0  0  0  0  0  0  0  0  0
   -1.7415   -0.6572    0.0000 C   0  0  0  0  0  0  0  0  0  0  0  0
   -0.6827    6.8851    0.0000 N   0  0  0  0  0  0  0  0  0  0  0  0
    1.5163   -2.2798    0.0000 N   0  0  0  0  0  0  0  0  0  0  0  0
    2.1181   -3.5722    0.0000 C   0  0  0  0  0  0  0  0  0  0  0  0
    1.2931   -5.0011    0.0000 C   0  0  0  0  0  0  0  0  0  0  0  0
    1.2931   -3.5722    0.0000 C   0  0  0  0  0  0  0  0  0  0  0  0
   -0.0125   -3.2947    0.0000 C   0  0  0  0  0  0  0  0  0  0  0  0
    0.8806   -4.2867    0.0000 C   0  0  0  0  0  0  0  0  0  0  0  0
    0.7412   -2.9591    0.0000 N   0  0  0  0  0  0  0  0  0  0  0  0
    0.0736   -4.1151    0.0000 N   0  0  0  0  0  0  0  0  0  0  0  0
    2.5306   -4.2867    0.0000 C   0  0  0  0  0  0  0  0  0  0  0  0
    3.3556   -4.2867    0.0000 C   0  0  0  0  0  0  0  0  0  0  0  0
    2.1181   -5.0011    0.0000 C   0  0  0  0  0  0  0  0  0  0  0  0
    2.5306   -5.7156    0.0000 C   0  0  0  0  0  0  0  0  0  0  0  0
   -0.5394   -4.6672    0.0000 C   0  0  0  0  0  0  0  0  0  0  0  0
   -0.4531   -5.4878    0.0000 O   0  0  0  0  0  0  0  0  0  0  0  0
   -1.2068   -5.8232    0.0000 C   0  0  0  0  0  0  0  0  0  0  0  0
   -1.3783   -6.6302    0.0000 C   0  0  0  0  0  0  0  0  0  0  0  0
   -2.1630   -6.8851    0.0000 O   0  0  0  0  0  0  0  0  0  0  0  0
   -1.3464   -4.4956    0.0000 C   0  0  0  0  0  0  0  0  0  0  0  0
   -1.6819   -3.7420    0.0000 O   0  0  0  0  0  0  0  0  0  0  0  0
   -1.7589   -5.2101    0.0000 C   0  0  0  0  0  0  0  0  0  0  0  0
   -2.5793   -5.2964    0.0000 O   0  0  0  0  0  0  0  0  0  0  0  0
   -0.3218    2.2508    0.0000 Co  0  0  0  0  0  0  0  0  0  0  0  0
   -0.8143    5.0655    0.0000 O   0  0  0  0  0  0  0  0  0  0  0  0
    1.7415    3.6508    0.0000 C   0  0  0  0  0  0  0  0  0  0  0  0
    2.4560    4.0633    0.0000 C   0  0  0  0  0  0  0  0  0  0  0  0
    3.1705    3.6507    0.0000 C   0  0  0  0  0  0  0  0  0  0  0  0
    3.8850    4.0632    0.0000 C   0  0  0  0  0  0  0  0  0  0  0  0
    3.8850    4.8881    0.0000 O   0  0  0  0  0  0  0  0  0  0  0  0
    4.5994    3.6505    0.0000 N   0  0  0  0  0  0  0  0  0  0  0  0
   -2.3337    0.7475    0.0000 C   0  0  0  0  0  0  0  0  0  0  0  0
   -3.0482    0.3350    0.0000 C   0  0  0  0  0  0  0  0  0  0  0  0
   -3.7627    0.7475    0.0000 C   0  0  0  0  0  0  0  0  0  0  0  0
   -3.7627    1.5724    0.0000 O   0  0  0  0  0  0  0  0  0  0  0  0
   -4.4771    0.3348    0.0000 N   0  0  0  0  0  0  0  0  0  0  0  0
   -2.3337    3.6508    0.0000 C   0  0  0  0  0  0  0  0  0  0  0  0
   -3.0482    3.2384    0.0000 C   0  0  0  0  0  0  0  0  0  0  0  0
   -3.7627    3.6509    0.0000 C   0  0  0  0  0  0  0  0  0  0  0  0
   -4.4772    3.2385    0.0000 N   0  0  0  0  0  0  0  0  0  0  0  0
   -3.7627    4.4759    0.0000 O   0  0  0  0  0  0  0  0  0  0  0  0
   -2.9172    4.2342    0.0000 C   0  0  0  0  0  0  0  0  0  0  0  0
    1.1493    4.2306    0.0000 C   0  0  0  0  0  0  0  0  0  0  0  0
    1.8638    4.6431    0.0000 C   0  0  0  0  0  0  0  0  0  0  0  0
    1.1493    5.0556    0.0000 C   0  0  0  0  0  0  0  0  0  0  0  0
    1.8638    5.4681    0.0000 C   0  0  0  0  0  0  0  0  0  0  0  0
    1.8639    6.2931    0.0000 O   0  0  0  0  0  0  0  0  0  0  0  0
    2.5782    5.0556    0.0000 N   0  0  0  0  0  0  0  0  0  0  0  0
   -3.1627   -4.7130    0.0000 P   0  0  0  0  0  0  0  0  0  0  0  0
   -3.1627   -3.8880    0.0000 O   0  0  0  0  0  0  0  0  0  0  0  0
   -3.5752   -5.4275    0.0000 O   0  0  0  0  0  0  0  0  0  0  0  0
   -4.5994   -3.9572    0.0000 C   0  0  0  0  0  0  0  0  0  0  0  0
   -3.9596   -4.9265    0.0000 O   0  0  0  0  0  0  0  0  0  0  0  0
    0.0000    0.0000    0.0000 H   0  0  0  0  0  0  0  0  0  0  0  0
    0.0000    0.0000    0.0000 H   0  0  0  0  0  0  0  0  0  0  0  0
    0.0000    0.0000    0.0000 H   0  0  0  0  0  0  0  0  0  0  0  0
    0.0000    0.0000    0.0000 H   0  0  0  0  0  0  0  0  0  0  0  0
    0.0000    0.0000    0.0000 H   0  0  0  0  0  0  0  0  0  0  0  0
    0.0000    0.0000    0.0000 H   0  0  0  0  0  0  0  0  0  0  0  0
    0.0000    0.0000    0.0000 H   0  0  0  0  0  0  0  0  0  0  0  0
    0.0000    0.0000    0.0000 H   0  0  0  0  0  0  0  0  0  0  0  0
    0.0000    0.0000    0.0000 H   0  0  0  0  0  0  0  0  0  0  0  0
    0.0000    0.0000    0.0000 H   0  0  0  0  0  0  0  0  0  0  0  0
    0.0000    0.0000    0.0000 H   0  0  0  0  0  0  0  0  0  0  0  0
    0.0000    0.0000    0.0000 H   0  0  0  0  0  0  0  0  0  0  0  0
    0.0000    0.0000    0.0000 H   0  0  0  0  0  0  0  0  0  0  0  0
    0.0000    0.0000    0.0000 H   0  0  0  0  0  0  0  0  0  0  0  0
    0.0000    0.0000    0.0000 H   0  0  0  0  0  0  0  0  0  0  0  0
    0.0000    0.0000    0.0000 H   0  0  0  0  0  0  0  0  0  0  0  0
    0.0000    0.0000    0.0000 H   0  0  0  0  0  0  0  0  0  0  0  0
    0.0000    0.0000    0.0000 H   0  0  0  0  0  0  0  0  0  0  0  0
    0.0000    0.0000    0.0000 H   0  0  0  0  0  0  0  0  0  0  0  0
    0.0000    0.0000    0.0000 H   0  0  0  0  0  0  0  0  0  0  0  0
    0.0000    0.0000    0.0000 H   0  0  0  0  0  0  0  0  0  0  0  0
    0.0000    0.0000    0.0000 H   0  0  0  0  0  0  0  0  0  0  0  0
    0.0000    0.0000    0.0000 H   0  0  0  0  0  0  0  0  0  0  0  0
    0.0000    0.0000    0.0000 H   0  0  0  0  0  0  0  0  0  0  0  0
    0.0000    0.0000    0.0000 H   0  0  0  0  0  0  0  0  0  0  0  0
    0.0000    0.0000    0.0000 H   0  0  0  0  0  0  0  0  0  0  0  0
    0.0000    0.0000    0.0000 H   0  0  0  0  0  0  0  0  0  0  0  0
    0.0000    0.0000    0.0000 H   0  0  0  0  0  0  0  0  0  0  0  0
    0.0000    0.0000    0.0000 H   0  0  0  0  0  0  0  0  0  0  0  0
    0.0000    0.0000    0.0000 H   0  0  0  0  0  0  0  0  0  0  0  0
    0.0000    0.0000    0.0000 H   0  0  0  0  0  0  0  0  0  0  0  0
    0.0000    0.0000    0.0000 H   0  0  0  0  0  0  0  0  0  0  0  0
    0.0000    0.0000    0.0000 H   0  0  0  0  0  0  0  0  0  0  0  0
    0.0000    0.0000    0.0000 H   0  0  0  0  0  0  0  0  0  0  0  0
    0.0000    0.0000    0.0000 H   0  0  0  0  0  0  0  0  0  0  0  0
    0.0000    0.0000    0.0000 H   0  0  0  0  0  0  0  0  0  0  0  0
    0.0000    0.0000    0.0000 H   0  0  0  0  0  0  0  0  0  0  0  0
    0.0000    0.0000    0.0000 H   0  0  0  0  0  0  0  0  0  0  0  0
    0.0000    0.0000    0.0000 H   0  0  0  0  0  0  0  0  0  0  0  0
    0.0000    0.0000    0.0000 H   0  0  0  0  0  0  0  0  0  0  0  0
    0.0000    0.0000    0.0000 H   0  0  0  0  0  0  0  0  0  0  0  0
    0.0000    0.0000    0.0000 H   0  0  0  0  0  0  0  0  0  0  0  0
    0.0000    0.0000    0.0000 H   0  0  0  0  0  0  0  0  0  0  0  0
    0.0000    0.0000    0.0000 H   0  0  0  0  0  0  0  0  0  0  0  0
    0.0000    0.0000    0.0000 H   0  0  0  0  0  0  0  0  0  0  0  0
    0.0000    0.0000    0.0000 H   0  0  0  0  0  0  0  0  0  0  0  0
    0.0000    0.0000    0.0000 H   0  0  0  0  0  0  0  0  0  0  0  0
    0.0000    0.0000    0.0000 H   0  0  0  0  0  0  0  0  0  0  0  0
    0.0000    0.0000    0.0000 H   0  0  0  0  0  0  0  0  0  0  0  0
    0.0000    0.0000    0.0000 H   0  0  0  0  0  0  0  0  0  0  0  0
    0.0000    0.0000    0.0000 H   0  0  0  0  0  0  0  0  0  0  0  0
    0.0000    0.0000    0.0000 H   0  0  0  0  0  0  0  0  0  0  0  0
    0.0000    0.0000    0.0000 H   0  0  0  0  0  0  0  0  0  0  0  0
    0.0000    0.0000    0.0000 H   0  0  0  0  0  0  0  0  0  0  0  0
    0.0000    0.0000    0.0000 H   0  0  0  0  0  0  0  0  0  0  0  0
    0.0000    0.0000    0.0000 H   0  0  0  0  0  0  0  0  0  0  0  0
    0.0000    0.0000    0.0000 H   0  0  0  0  0  0  0  0  0  0  0  0
    0.0000    0.0000    0.0000 H   0  0  0  0  0  0  0  0  0  0  0  0
    0.0000    0.0000    0.0000 H   0  0  0  0  0  0  0  0  0  0  0  0
    0.0000    0.0000    0.0000 H   0  0  0  0  0  0  0  0  0  0  0  0
    0.0000    0.0000    0.0000 H   0  0  0  0  0  0  0  0  0  0  0  0
    0.0000    0.0000    0.0000 H   0  0  0  0  0  0  0  0  0  0  0  0
    0.0000    0.0000    0.0000 H   0  0  0  0  0  0  0  0  0  0  0  0
    0.0000    0.0000    0.0000 H   0  0  0  0  0  0  0  0  0  0  0  0
    0.0000    0.0000    0.0000 H   0  0  0  0  0  0  0  0  0  0  0  0
    0.0000    0.0000    0.0000 H   0  0  0  0  0  0  0  0  0  0  0  0
    0.0000    0.0000    0.0000 H   0  0  0  0  0  0  0  0  0  0  0  0
    0.0000    0.0000    0.0000 H   0  0  0  0  0  0  0  0  0  0  0  0
    0.0000    0.0000    0.0000 H   0  0  0  0  0  0  0  0  0  0  0  0
    0.0000    0.0000    0.0000 H   0  0  0  0  0  0  0  0  0  0  0  0
    0.0000    0.0000    0.0000 H   0  0  0  0  0  0  0  0  0  0  0  0
    0.0000    0.0000    0.0000 H   0  0  0  0  0  0  0  0  0  0  0  0
    0.0000    0.0000    0.0000 H   0  0  0  0  0  0  0  0  0  0  0  0
    0.0000    0.0000    0.0000 H   0  0  0  0  0  0  0  0  0  0  0  0
    0.0000    0.0000    0.0000 H   0  0  0  0  0  0  0  0  0  0  0  0
    0.0000    0.0000    0.0000 H   0  0  0  0  0  0  0  0  0  0  0  0
    0.0000    0.0000    0.0000 H   0  0  0  0  0  0  0  0  0  0  0  0
    0.0000    0.0000    0.0000 H   0  0  0  0  0  0  0  0  0  0  0  0
    0.0000    0.0000    0.0000 H   0  0  0  0  0  0  0  0  0  0  0  0
    0.0000    0.0000    0.0000 H   0  0  0  0  0  0  0  0  0  0  0  0
    0.0000    0.0000    0.0000 H   0  0  0  0  0  0  0  0  0  0  0  0
    0.0000    0.0000    0.0000 H   0  0  0  0  0  0  0  0  0  0  0  0
    0.0000    0.0000    0.0000 H   0  0  0  0  0  0  0  0  0  0  0  0
    0.0000    0.0000    0.0000 H   0  0  0  0  0  0  0  0  0  0  0  0
    0.0000    0.0000    0.0000 H   0  0  0  0  0  0  0  0  0  0  0  0
    0.0000    0.0000    0.0000 H   0  0  0  0  0  0  0  0  0  0  0  0
    0.0000    0.0000    0.0000 H   0  0  0  0  0  0  0  0  0  0  0  0
    0.0000    0.0000    0.0000 H   0  0  0  0  0  0  0  0  0  0  0  0
    0.0000    0.0000    0.0000 H   0  0  0  0  0  0  0  0  0  0  0  0
 27  1  2  0
  1  2  1  0
 39  1  1  0
 29  2  1  0
  2 63  1  0
 29 71  1  0
 29 30  1  0
 71 39  1  0
 30  3  1  0
 30 76  1  0
  3  4  2  0
  5  4  1  0
  4 25  1  0
  5  6  1  1
 76  5  1  0
  6  7  1  0
  7  8  1  0
  8 41  1  0
  8  9  2  0
 25 10  2  0
 10 11  1  0
 10 82  1  0
 11 12  2  0
 12 13  1  0
 12 65  1  0
 13 14  2  0
 14 15  1  0
 14 22  1  0
 15 16  2  0
 16 17  1  0
 17 18  1  6
 17 22  1  0
 18 19  1  0
 19 20  1  0
 20 42  1  0
 20 21  2  0
 22 23  1  0
 22 24  1  0
 65 82  1  0
 11 63  1  0
  3 63  1  0
 15 63  1  0
 25 26  1  0
 27 28  1  0
 30 31  1  6
 38 32  1  0
 32 33  1  0
 33 35  1  0
 33 34  2  0
 36 35  1  0
 37 36  1  0
 39 38  1  0
 39 40  1  1
 27 16  1  0
 43 45  2  0
 43 50  1  0
 47 44  2  0
 44 52  1  0
 45 48  1  0
 45 47  1  0
 46 49  1  0
 46 48  2  0
 49 47  1  0
 54 49  1  0
 52 50  2  0
 50 51  1  0
 52 53  1  0
 54 59  1  0
 54 55  1  0
 56 55  1  0
 61 56  1  0
 56 57  1  1
 57 58  1  0
 59 61  1  0
 59 60  1  1
 61 62  1  0
 63 64  1  0
 65 66  1  6
 66 67  1  0
 67 68  1  0
 68 70  1  0
 68 69  2  0
 71 72  1  6
 72 73  1  0
 73 75  1  0
 73 74  2  0
 76 77  1  1
 77 78  1  0
 78 80  2  0
 78 79  1  0
 76 81  1  0
 82 83  1  6
 82 84  1  0
 84 85  1  0
 85 87  1  0
 85 86  2  0
 62 88  1  0
 88 89  1  0
 88 90  2  0
 37 89  1  0
 37 91  1  1
 88 92  1  0
 48 63  1  0
  5 93  1  0
  6 94  1  0
  6 95  1  0
  7 96  1  0
  7 97  1  0
 13 98  1  0
 17 99  1  0
 18100  1  0
 18101  1  0
 19102  1  0
 19103  1  0
 23104  1  0
 23105  1  0
 23106  1  0
 24107  1  0
 24108  1  0
 24109  1  0
 26110  1  0
 26111  1  0
 26112  1  0
 28113  1  0
 28114  1  0
 28115  1  0
 29116  1  1
 31117  1  0
 31118  1  0
 31119  1  0
 32120  1  0
 32121  1  0
 35122  1  0
 36123  1  0
 36124  1  0
 37125  1  0
 38126  1  0
 38127  1  0
 40128  1  0
 40129  1  0
 40130  1  0
 41131  1  0
 41132  1  0
 42133  1  0
 42134  1  0
 43135  1  0
 44136  1  0
 46137  1  0
 51138  1  0
 51139  1  0
 51140  1  0
 53141  1  0
 53142  1  0
 53143  1  0
 54144  1  6
 56145  1  0
 57146  1  0
 57147  1  0
 58148  1  0
 59149  1  0
 60150  1  0
 61151  1  6
 64152  1  0
 65153  1  0
 66154  1  0
 66155  1  0
 67156  1  0
 67157  1  0
 70158  1  0
 70159  1  0
 71160  1  0
 72161  1  0
 72162  1  0
 75163  1  0
 75164  1  0
 77165  1  0
 77166  1  0
 79167  1  0
 79168  1  0
 81169  1  0
 81170  1  0
 81171  1  0
 83172  1  0
 83173  1  0
 83174  1  0
 84175  1  0
 84176  1  0
 87177  1  0
 87178  1  0
 91179  1  0
 91180  1  0
 91181  1  0
M  CHG  6   3   1  11   1  15   1  48   1  63  -3  92  -1
M  END
>  <DATABASE_ID>  (1) 
DB00200

>  <DATABASE_NAME>  (1) 
drugbank

>  <DRUGBANK_ID>  (1) 
DB00200

>  <DRUG_GROUPS>  (1) 
approved

>  <EXACT_MASS>  (1) 
1345.567070949

>  <FORMULA>  (1) 
C62H89CoN13O15P

>  <GENERIC_NAME>  (1) 
Hydroxocobalamin

>  <INCHI_IDENTIFIER>  (1) 
InChI=1S/C62H90N13O14P.Co.H2O/c1-29-20-39-40(21-30(29)2)75(28-70-39)57-52(84)53(41(27-76)87-57)89-90(85,86)88-31(3)26-69-49(83)18-19-59(8)37(22-46(66)80)56-62(11)61(10,25-48(68)82)36(14-17-45(65)79)51(74-62)33(5)55-60(9,24-47(67)81)34(12-15-43(63)77)38(71-55)23-42-58(6,7)35(13-16-44(64)78)50(72-42)32(4)54(59)73-56;;/h20-21,23,28,31,34-37,41,52-53,56-57,76,84H,12-19,22,24-27H2,1-11H3,(H15,63,64,65,66,67,68,69,71,72,73,74,77,78,79,80,81,82,83,85,86);;1H2/q;+3;/p-3/t31-,34-,35-,36-,37+,41-,52-,53-,56-,57+,59-,60+,61+,62+;;/m1../s1

>  <INCHI_KEY>  (1) 
YOZNUFWCRFCGIH-WZHZPDAFSA-K

>  <INTERNATIONAL_BRANDS>  (1) 
Alpha-Redisol; Hydrocobamine

>  <JCHEM_ACCEPTOR_COUNT>  (1) 
14

>  <JCHEM_ATOM_COUNT>  (1) 
181

>  <JCHEM_AVERAGE_POLARIZABILITY>  (1) 
135.55620733816397

>  <JCHEM_BIOAVAILABILITY>  (1) 
0

>  <JCHEM_DONOR_COUNT>  (1) 
10

>  <JCHEM_FORMAL_CHARGE>  (1) 
0

>  <JCHEM_GHOSE_FILTER>  (1) 
0

>  <JCHEM_IUPAC>  (1) 
(10S,12R,13S,17R,23R,24R,25R,30S,35S,36S,40S,41S,42R,46R)-30,35,40-tris(2-carbamoylethyl)-24,36,41-tris(carbamoylmethyl)-1,46-dihydroxy-12-(hydroxymethyl)-5,6,17,23,28,31,31,36,38,41,42-undecamethyl-15,20-dioxo-11,14,16-trioxa-2lambda5,9,19,26,43lambda5,44lambda5,45lambda5-heptaaza-15lambda5-phospha-1-cobaltadodecacyclo[27.14.1.1^{1,34}.1^{2,9}.1^{10,13}.0^{1,26}.0^{3,8}.0^{23,27}.0^{25,42}.0^{32,44}.0^{39,43}.0^{37,45}]heptatetraconta-2(47),3,5,7,27,29(44),32,34(45),37,39(43)-decaene-2,43,44,45-tetrakis(ylium)-1,1,1-triuid-15-olate

>  <JCHEM_LOGP>  (1) 
-14.432696765886984

>  <JCHEM_MDDR_LIKE_RULE>  (1) 
1

>  <JCHEM_NUMBER_OF_RINGS>  (1) 
12

>  <JCHEM_PHYSIOLOGICAL_CHARGE>  (1) 
0

>  <JCHEM_PKA>  (1) 
11.555006399729706

>  <JCHEM_PKA_STRONGEST_ACIDIC>  (1) 
1.8185514839951908

>  <JCHEM_PKA_STRONGEST_BASIC>  (1) 
-0.553307717953729

>  <JCHEM_POLAR_SURFACE_AREA>  (1) 
437.22999999999985

>  <JCHEM_REFRACTIVITY>  (1) 
340.0329000000001

>  <JCHEM_ROTATABLE_BOND_COUNT>  (1) 
16

>  <JCHEM_RULE_OF_FIVE>  (1) 
0

>  <JCHEM_TRADITIONAL_IUPAC>  (1) 
(10S,12R,13S,17R,23R,24R,25R,30S,35S,36S,40S,41S,42R,46R)-30,35,40-tris(2-carbamoylethyl)-24,36,41-tris(carbamoylmethyl)-1,46-dihydroxy-12-(hydroxymethyl)-5,6,17,23,28,31,31,36,38,41,42-undecamethyl-15,20-dioxo-11,14,16-trioxa-2lambda5,9,19,26,43lambda5,44lambda5,45lambda5-heptaaza-15lambda5-phospha-1-cobaltadodecacyclo[27.14.1.1^{1,34}.1^{2,9}.1^{10,13}.0^{1,26}.0^{3,8}.0^{23,27}.0^{25,42}.0^{32,44}.0^{39,43}.0^{37,45}]heptatetraconta-2(47),3,5,7,27,29(44),32,34(45),37,39(43)-decaene-2,43,44,45-tetrakis(ylium)-1,1,1-triuid-15-olate

>  <JCHEM_VEBER_RULE>  (1) 
0

>  <MOLECULAR_WEIGHT>  (1) 
1346.3551

>  <PRODUCTS>  (1) 
Cyanokit; DermaNIC; Hydro Cobex Inj 1000mcg/ml; Hydroxocobalamin; Hydroxocobalamin Inj 1000mcg/ml; Hydroxy Cobal Inj 1000mcg/ml

>  <SALTS>  (1) 
Hydroxocobalamin acetate

>  <SECONDARY_ACCESSION_NUMBERS>  (1) 
APRD01022

>  <SMILES>  (1) 
[N+]1=2[Co-3]345([N+]6=C7[C@H]([C@@](CC(=O)N)(C)[C@@]6([C@@]6(N3C(=C(C)C3=[N+]4C(C(C)(C)[C@@H]3CCC(=O)N)=CC3=[N+]5C(=C7C)[C@@](CC(=O)N)([C@@H]3CCC(=O)N)C)[C@@](C)([C@H]6CC(=O)N)CCC(NC[C@@H](C)OP(=O)(O[C@@H]3[C@H](O[C@H](N(C4=CC(=C(C=C14)C)C)C=2)[C@@H]3O)CO)[O-])=O)[H])C)CCC(=O)N)O[H]

>  <SYNONYMS>  (1) 
Hydroxocobalamin anhydrous; Hydroxocobalamine; Hydroxocobalaminum anhydrous; Hydroxycobalamin; OH-Cbl; Vitamin B-12b

$$$$
