
     RDKit          2D

137140  0  0  0  0  0  0  0  0999 V2000
   13.8283   -8.2269    0.0000 N   0  0  0  0  0  0  0  0  0  0  0  0
   13.1542   -7.8673    0.0000 C   0  0  0  0  0  0  0  0  0  0  0  0
   12.4352   -8.2269    0.0000 C   0  0  0  0  0  0  0  0  0  0  0  0
   11.7161   -7.8673    0.0000 N   0  0  0  0  0  0  0  0  0  0  0  0
   10.9970   -8.2269    0.0000 C   0  0  0  0  0  0  0  0  0  0  0  0
   10.2780   -7.8673    0.0000 C   0  0  0  0  0  0  0  0  0  0  0  0
    9.5589   -8.2269    0.0000 N   0  0  0  0  0  0  0  0  0  0  0  0
    8.8848   -7.8673    0.0000 C   0  0  0  0  0  0  0  0  0  0  0  0
    8.1658   -8.2269    0.0000 O   0  0  0  0  0  0  0  0  0  0  0  0
   13.1542   -7.0135    0.0000 O   0  0  0  0  0  0  0  0  0  0  0  0
   10.9970   -9.0807    0.0000 O   0  0  0  0  0  0  0  0  0  0  0  0
   10.2780   -7.0135    0.0000 C   0  0  0  0  0  0  0  0  0  0  0  0
   10.9970   -6.6089    0.0000 C   0  0  0  0  0  0  0  0  0  0  0  0
   10.9970   -5.7550    0.0000 C   0  0  0  0  0  0  0  0  0  0  0  0
   11.6712   -5.3506    0.0000 C   0  0  0  0  0  0  0  0  0  0  0  0
    8.8848   -7.0135    0.0000 C   0  0  0  0  0  0  0  0  0  0  0  0
    9.5140   -6.5191    0.0000 C   0  0  0  0  0  0  0  0  0  0  0  0
    8.2107   -6.5191    0.0000 N   0  0  0  0  0  0  0  0  0  0  0  0
    9.2893   -5.7550    0.0000 C   0  0  0  0  0  0  0  0  0  0  0  0
    8.4354   -5.7550    0.0000 C   0  0  0  0  0  0  0  0  0  0  0  0
    7.4916   -6.9236    0.0000 C   0  0  0  0  0  0  0  0  0  0  0  0
    6.7725   -6.5191    0.0000 C   0  0  0  0  0  0  0  0  0  0  0  0
    6.0535   -6.9236    0.0000 N   0  0  0  0  0  0  0  0  0  0  0  0
    5.3344   -6.5191    0.0000 C   0  0  0  0  0  0  0  0  0  0  0  0
    4.6603   -6.9236    0.0000 C   0  0  0  0  0  0  0  0  0  0  0  0
    3.9413   -6.5191    0.0000 N   0  0  0  0  0  0  0  0  0  0  0  0
    7.4916   -7.7774    0.0000 O   0  0  0  0  0  0  0  0  0  0  0  0
    6.7725   -5.7101    0.0000 C   0  0  0  0  0  0  0  0  0  0  0  0
    7.4916   -5.3057    0.0000 S   0  0  0  0  0  0  0  0  0  0  0  0
    7.4916   -4.4967    0.0000 S   0  0  0  0  0  0  0  0  0  0  0  0
    5.3344   -5.7101    0.0000 O   0  0  0  0  0  0  0  0  0  0  0  0
    4.6603   -7.7774    0.0000 C   0  0  0  0  0  0  0  0  0  0  0  0
    3.9413   -8.1819    0.0000 C   0  0  0  0  0  0  0  0  0  0  0  0
    3.9413   -8.9909    0.0000 O   0  0  0  0  0  0  0  0  0  0  0  0
    3.2222   -7.7774    0.0000 N   0  0  0  0  0  0  0  0  0  0  0  0
    3.9413   -5.7101    0.0000 C   0  0  0  0  0  0  0  0  0  0  0  0
    3.2222   -5.3057    0.0000 C   0  0  0  0  0  0  0  0  0  0  0  0
    4.6603   -5.3057    0.0000 O   0  0  0  0  0  0  0  0  0  0  0  0
    2.5031   -5.7101    0.0000 C   0  0  0  0  0  0  0  0  0  0  0  0
    2.4754   -6.5347    0.0000 C   0  0  0  0  0  0  0  0  0  0  0  0
    1.7563   -6.9392    0.0000 C   0  0  0  0  0  0  0  0  0  0  0  0
    1.0373   -6.5347    0.0000 N   0  0  0  0  0  0  0  0  0  0  0  0
    1.7563   -7.7931    0.0000 O   0  0  0  0  0  0  0  0  0  0  0  0
    3.2222   -4.4967    0.0000 N   0  0  0  0  0  0  0  0  0  0  0  0
    2.5031   -3.2384    0.0000 C   0  0  0  0  0  0  0  0  0  0  0  0
    2.5031   -4.0922    0.0000 C   0  0  0  0  0  0  0  0  0  0  0  0
    3.2222   -2.8339    0.0000 C   0  0  0  0  0  0  0  0  0  0  0  0
    3.9413   -3.2384    0.0000 C   0  0  0  0  0  0  0  0  0  0  0  0
    3.9413   -4.0922    0.0000 C   0  0  0  0  0  0  0  0  0  0  0  0
    1.0650   -3.2384    0.0000 C   0  0  0  0  0  0  0  0  0  0  0  0
    1.0650   -4.0922    0.0000 C   0  0  0  0  0  0  0  0  0  0  0  0
    1.7841   -2.8339    0.0000 C   0  0  0  0  0  0  0  0  0  0  0  0
    1.7841   -4.4967    0.0000 C   0  0  0  0  0  0  0  0  0  0  0  0
    6.7725   -3.2384    0.0000 N   0  0  0  0  0  0  0  0  0  0  0  0
    7.4916   -2.8339    0.0000 C   0  0  0  0  0  0  0  0  0  0  0  0
    8.2107   -3.2384    0.0000 C   0  0  0  0  0  0  0  0  0  0  0  0
    8.2107   -4.0473    0.0000 C   0  0  0  0  0  0  0  0  0  0  0  0
    5.3794   -3.2384    0.0000 C   0  0  0  0  0  0  0  0  0  0  0  0
    5.3794   -4.0473    0.0000 O   0  0  0  0  0  0  0  0  0  0  0  0
    6.0535   -2.8339    0.0000 C   0  0  0  0  0  0  0  0  0  0  0  0
    4.6603   -2.8339    0.0000 N   0  0  0  0  0  0  0  0  0  0  0  0
    4.6603   -4.4967    0.0000 O   0  0  0  0  0  0  0  0  0  0  0  0
    6.0535   -1.9800    0.0000 C   0  0  0  0  0  0  0  0  0  0  0  0
    4.6603   -1.9800    0.0000 C   0  0  0  0  0  0  0  0  0  0  0  0
    5.3794   -1.5756    0.0000 C   0  0  0  0  0  0  0  0  0  0  0  0
    3.9413   -1.5756    0.0000 C   0  0  0  0  0  0  0  0  0  0  0  0
    3.9413   -0.7666    0.0000 C   0  0  0  0  0  0  0  0  0  0  0  0
    5.3794   -0.7666    0.0000 C   0  0  0  0  0  0  0  0  0  0  0  0
    4.6603   -0.3621    0.0000 C   0  0  0  0  0  0  0  0  0  0  0  0
    8.8848   -2.8339    0.0000 N   0  0  0  0  0  0  0  0  0  0  0  0
    7.4916   -1.9800    0.0000 O   0  0  0  0  0  0  0  0  0  0  0  0
   11.6712   -4.5417    0.0000 N   0  0  0  0  0  0  0  0  0  0  0  0
    0.0000    0.0000    0.0000 H   0  0  0  0  0  0  0  0  0  0  0  0
    0.0000    0.0000    0.0000 H   0  0  0  0  0  0  0  0  0  0  0  0
    0.0000    0.0000    0.0000 H   0  0  0  0  0  0  0  0  0  0  0  0
    0.0000    0.0000    0.0000 H   0  0  0  0  0  0  0  0  0  0  0  0
    0.0000    0.0000    0.0000 H   0  0  0  0  0  0  0  0  0  0  0  0
    0.0000    0.0000    0.0000 H   0  0  0  0  0  0  0  0  0  0  0  0
    0.0000    0.0000    0.0000 H   0  0  0  0  0  0  0  0  0  0  0  0
    0.0000    0.0000    0.0000 H   0  0  0  0  0  0  0  0  0  0  0  0
    0.0000    0.0000    0.0000 H   0  0  0  0  0  0  0  0  0  0  0  0
    0.0000    0.0000    0.0000 H   0  0  0  0  0  0  0  0  0  0  0  0
    0.0000    0.0000    0.0000 H   0  0  0  0  0  0  0  0  0  0  0  0
    0.0000    0.0000    0.0000 H   0  0  0  0  0  0  0  0  0  0  0  0
    0.0000    0.0000    0.0000 H   0  0  0  0  0  0  0  0  0  0  0  0
    0.0000    0.0000    0.0000 H   0  0  0  0  0  0  0  0  0  0  0  0
    0.0000    0.0000    0.0000 H   0  0  0  0  0  0  0  0  0  0  0  0
    0.0000    0.0000    0.0000 H   0  0  0  0  0  0  0  0  0  0  0  0
    0.0000    0.0000    0.0000 H   0  0  0  0  0  0  0  0  0  0  0  0
    0.0000    0.0000    0.0000 H   0  0  0  0  0  0  0  0  0  0  0  0
    0.0000    0.0000    0.0000 H   0  0  0  0  0  0  0  0  0  0  0  0
    0.0000    0.0000    0.0000 H   0  0  0  0  0  0  0  0  0  0  0  0
    0.0000    0.0000    0.0000 H   0  0  0  0  0  0  0  0  0  0  0  0
    0.0000    0.0000    0.0000 H   0  0  0  0  0  0  0  0  0  0  0  0
    0.0000    0.0000    0.0000 H   0  0  0  0  0  0  0  0  0  0  0  0
    0.0000    0.0000    0.0000 H   0  0  0  0  0  0  0  0  0  0  0  0
    0.0000    0.0000    0.0000 H   0  0  0  0  0  0  0  0  0  0  0  0
    0.0000    0.0000    0.0000 H   0  0  0  0  0  0  0  0  0  0  0  0
    0.0000    0.0000    0.0000 H   0  0  0  0  0  0  0  0  0  0  0  0
    0.0000    0.0000    0.0000 H   0  0  0  0  0  0  0  0  0  0  0  0
    0.0000    0.0000    0.0000 H   0  0  0  0  0  0  0  0  0  0  0  0
    0.0000    0.0000    0.0000 H   0  0  0  0  0  0  0  0  0  0  0  0
    0.0000    0.0000    0.0000 H   0  0  0  0  0  0  0  0  0  0  0  0
    0.0000    0.0000    0.0000 H   0  0  0  0  0  0  0  0  0  0  0  0
    0.0000    0.0000    0.0000 H   0  0  0  0  0  0  0  0  0  0  0  0
    0.0000    0.0000    0.0000 H   0  0  0  0  0  0  0  0  0  0  0  0
    0.0000    0.0000    0.0000 H   0  0  0  0  0  0  0  0  0  0  0  0
    0.0000    0.0000    0.0000 H   0  0  0  0  0  0  0  0  0  0  0  0
    0.0000    0.0000    0.0000 H   0  0  0  0  0  0  0  0  0  0  0  0
    0.0000    0.0000    0.0000 H   0  0  0  0  0  0  0  0  0  0  0  0
    0.0000    0.0000    0.0000 H   0  0  0  0  0  0  0  0  0  0  0  0
    0.0000    0.0000    0.0000 H   0  0  0  0  0  0  0  0  0  0  0  0
    0.0000    0.0000    0.0000 H   0  0  0  0  0  0  0  0  0  0  0  0
    0.0000    0.0000    0.0000 H   0  0  0  0  0  0  0  0  0  0  0  0
    0.0000    0.0000    0.0000 H   0  0  0  0  0  0  0  0  0  0  0  0
    0.0000    0.0000    0.0000 H   0  0  0  0  0  0  0  0  0  0  0  0
    0.0000    0.0000    0.0000 H   0  0  0  0  0  0  0  0  0  0  0  0
    0.0000    0.0000    0.0000 H   0  0  0  0  0  0  0  0  0  0  0  0
    0.0000    0.0000    0.0000 H   0  0  0  0  0  0  0  0  0  0  0  0
    0.0000    0.0000    0.0000 H   0  0  0  0  0  0  0  0  0  0  0  0
    0.0000    0.0000    0.0000 H   0  0  0  0  0  0  0  0  0  0  0  0
    0.0000    0.0000    0.0000 H   0  0  0  0  0  0  0  0  0  0  0  0
    0.0000    0.0000    0.0000 H   0  0  0  0  0  0  0  0  0  0  0  0
    0.0000    0.0000    0.0000 H   0  0  0  0  0  0  0  0  0  0  0  0
    0.0000    0.0000    0.0000 H   0  0  0  0  0  0  0  0  0  0  0  0
    0.0000    0.0000    0.0000 H   0  0  0  0  0  0  0  0  0  0  0  0
    0.0000    0.0000    0.0000 H   0  0  0  0  0  0  0  0  0  0  0  0
    0.0000    0.0000    0.0000 H   0  0  0  0  0  0  0  0  0  0  0  0
    0.0000    0.0000    0.0000 H   0  0  0  0  0  0  0  0  0  0  0  0
    0.0000    0.0000    0.0000 H   0  0  0  0  0  0  0  0  0  0  0  0
    0.0000    0.0000    0.0000 H   0  0  0  0  0  0  0  0  0  0  0  0
    0.0000    0.0000    0.0000 H   0  0  0  0  0  0  0  0  0  0  0  0
    0.0000    0.0000    0.0000 H   0  0  0  0  0  0  0  0  0  0  0  0
    0.0000    0.0000    0.0000 H   0  0  0  0  0  0  0  0  0  0  0  0
    0.0000    0.0000    0.0000 H   0  0  0  0  0  0  0  0  0  0  0  0
    0.0000    0.0000    0.0000 H   0  0  0  0  0  0  0  0  0  0  0  0
    0.0000    0.0000    0.0000 H   0  0  0  0  0  0  0  0  0  0  0  0
  2  1  1  0
  3  2  1  0
 10  2  2  0
  4  3  1  0
  5  4  1  0
  6  5  1  6
 11  5  2  0
  7  6  1  0
  6 12  1  0
  8  7  1  0
  9  8  2  0
 16  8  1  6
 13 12  1  0
 14 13  1  0
 15 14  1  0
 72 15  1  0
 17 16  1  0
 18 16  1  0
 19 17  1  0
 20 18  1  0
 21 18  1  0
 20 19  1  0
 22 21  1  6
 27 21  2  0
 23 22  1  0
 28 22  1  0
 24 23  1  0
 25 24  1  0
 31 24  2  0
 26 25  1  0
 25 32  1  1
 36 26  1  0
 29 28  1  0
 30 29  1  0
 57 30  1  0
 33 32  1  0
 34 33  2  0
 35 33  1  0
 37 36  1  0
 38 36  2  0
 37 39  1  6
 44 37  1  0
 40 39  1  0
 41 40  1  0
 42 41  1  0
 43 41  2  0
 49 44  1  0
 47 45  1  0
 52 45  1  0
 46 45  2  0
 53 46  1  0
 48 47  1  6
 61 48  1  0
 49 48  1  0
 62 49  2  0
 51 50  1  0
 52 50  2  0
 53 51  2  0
 55 54  1  0
 60 54  1  0
 56 55  1  0
 71 55  2  0
 57 56  1  0
 56 70  1  6
 59 58  2  0
 60 58  1  0
 61 58  1  0
 60 63  1  6
 65 63  1  0
 66 64  2  0
 65 64  1  0
 68 65  2  0
 67 66  1  0
 69 67  2  0
 69 68  1  0
  1 73  1  0
  1 74  1  0
  3 75  1  0
  3 76  1  0
  4 77  1  0
  6 78  1  0
  7 79  1  0
 12 80  1  0
 12 81  1  0
 13 82  1  0
 13 83  1  0
 14 84  1  0
 14 85  1  0
 15 86  1  0
 15 87  1  0
 16 88  1  0
 17 89  1  0
 17 90  1  0
 19 91  1  0
 19 92  1  0
 20 93  1  0
 20 94  1  0
 22 95  1  0
 23 96  1  0
 25 97  1  0
 26 98  1  0
 28 99  1  0
 28100  1  0
 32101  1  0
 32102  1  0
 35103  1  0
 35104  1  0
 37105  1  0
 39106  1  0
 39107  1  0
 40108  1  0
 40109  1  0
 42110  1  0
 42111  1  0
 44112  1  0
 46113  1  0
 47114  1  0
 47115  1  0
 48116  1  0
 50117  1  0
 51118  1  0
 52119  1  0
 53120  1  0
 54121  1  0
 56122  1  0
 57123  1  0
 57124  1  0
 60125  1  0
 61126  1  0
 63127  1  0
 63128  1  0
 64129  1  0
 66130  1  0
 67131  1  0
 68132  1  0
 69133  1  0
 70134  1  0
 70135  1  0
 72136  1  0
 72137  1  0
M  END
>  <ALOGPS_LOGP>  (1) 
-1.11

>  <ALOGPS_LOGS>  (1) 
-4.36

>  <ALOGPS_SOLUBILITY>  (1) 
4.53e-02 g/l

>  <DATABASE_ID>  (1) 
DB00093

>  <DATABASE_NAME>  (1) 
drugbank

>  <DRUGBANK_ID>  (1) 
DB00093

>  <DRUG_GROUPS>  (1) 
approved

>  <EXACT_MASS>  (1) 
1039.436791367

>  <FORMULA>  (1) 
C46H65N13O11S2

>  <GENERIC_NAME>  (1) 
Felypressin

>  <INCHI_IDENTIFIER>  (1) 
InChI=1S/C46H65N13O11S2/c47-18-8-7-14-29(40(64)52-23-38(51)62)54-45(69)35-15-9-19-59(35)46(70)34-25-72-71-24-28(48)39(63)55-31(20-26-10-3-1-4-11-26)43(67)56-32(21-27-12-5-2-6-13-27)42(66)53-30(16-17-36(49)60)41(65)57-33(22-37(50)61)44(68)58-34/h1-6,10-13,28-35H,7-9,14-25,47-48H2,(H2,49,60)(H2,50,61)(H2,51,62)(H,52,64)(H,53,66)(H,54,69)(H,55,63)(H,56,67)(H,57,65)(H,58,68)/t28-,29-,30-,31-,32-,33-,34-,35-/m0/s1

>  <INCHI_KEY>  (1) 
SFKQVVDKFKYTNA-DZCXQCEKSA-N

>  <INTERNATIONAL_BRANDS>  (1) 
Colupressine; Octapressin

>  <JCHEM_ACCEPTOR_COUNT>  (1) 
13

>  <JCHEM_AVERAGE_POLARIZABILITY>  (1) 
103.93121703841666

>  <JCHEM_BIOAVAILABILITY>  (1) 
0

>  <JCHEM_DONOR_COUNT>  (1) 
12

>  <JCHEM_FORMAL_CHARGE>  (1) 
0

>  <JCHEM_GHOSE_FILTER>  (1) 
0

>  <JCHEM_IUPAC>  (1) 
(2S)-6-amino-2-{[(2S)-1-[(4R,7S,10S,13S,16S,19R)-19-amino-13,16-dibenzyl-10-(2-carbamoylethyl)-7-(carbamoylmethyl)-6,9,12,15,18-pentaoxo-1,2-dithia-5,8,11,14,17-pentaazacycloicosane-4-carbonyl]pyrrolidin-2-yl]formamido}-N-(carbamoylmethyl)hexanamide

>  <JCHEM_LOGP>  (1) 
-5.835369634601158

>  <JCHEM_MDDR_LIKE_RULE>  (1) 
1

>  <JCHEM_NUMBER_OF_RINGS>  (1) 
4

>  <JCHEM_PHYSIOLOGICAL_CHARGE>  (1) 
2

>  <JCHEM_PKA>  (1) 
11.7997867962954

>  <JCHEM_PKA_STRONGEST_ACIDIC>  (1) 
11.385350067635363

>  <JCHEM_PKA_STRONGEST_BASIC>  (1) 
10.176531109821177

>  <JCHEM_POLAR_SURFACE_AREA>  (1) 
405.3199999999998

>  <JCHEM_REFRACTIVITY>  (1) 
264.7915

>  <JCHEM_ROTATABLE_BOND_COUNT>  (1) 
19

>  <JCHEM_RULE_OF_FIVE>  (1) 
0

>  <JCHEM_TRADITIONAL_IUPAC>  (1) 
felypressin

>  <JCHEM_VEBER_RULE>  (1) 
0

>  <MOLECULAR_WEIGHT>  (1) 
1040.219

>  <SECONDARY_ACCESSION_NUMBERS>  (1) 
BTD00114; BIOD00114

>  <SMILES>  (1) 
NCCCC[C@H](NC(=O)[C@@H]1CCCN1C(=O)[C@@H]1CSSC[C@H](N)C(=O)N[C@@H](CC2=CC=CC=C2)C(=O)N[C@@H](CC2=CC=CC=C2)C(=O)N[C@@H](CCC(N)=O)C(=O)N[C@@H](CC(N)=O)C(=O)N1)C(=O)NCC(N)=O

>  <SYNONYMS>  (1) 
2-(L-phenylalanine)-8-L-lysinevasopressin; Felipresina; Felypressin; Felypressine; Felypressinum; PLV-2

$$$$
