147
     RDKit          2D

 21 21  0  0  0  0  0  0  0  0999 V2000
    2.0930    0.2063    0.0000 O   0  0  0  0  0  0  0  0  0  0  0  0
    5.6655   -0.2063    0.0000 O   0  0  0  0  0  0  0  0  0  0  0  0
    2.8075    1.4438    0.0000 O   0  0  0  0  0  0  0  0  0  0  0  0
    3.5220   -1.4438    0.0000 N   0  0  0  0  0  0  0  0  0  0  0  0
    4.2365   -0.2063    0.0000 C   0  0  0  0  0  0  0  0  0  0  0  0
    3.5220    0.2063    0.0000 C   0  0  0  0  0  0  0  0  0  0  0  0
    2.8075   -0.2063    0.0000 C   0  0  0  0  0  0  0  0  0  0  0  0
    2.8075   -1.0313    0.0000 C   0  0  0  0  0  0  0  0  0  0  0  0
    4.9509    0.2063    0.0000 C   0  0  0  0  0  0  0  0  0  0  0  0
    4.2365   -1.0313    0.0000 C   0  0  0  0  0  0  0  0  0  0  0  0
    2.0930   -1.4438    0.0000 C   0  0  0  0  0  0  0  0  0  0  0  0
    3.5220    1.0313    0.0000 C   0  0  0  0  0  0  0  0  0  0  0  0
    0.0000    0.0000    0.0000 H   0  0  0  0  0  0  0  0  0  0  0  0
    0.0000    0.0000    0.0000 H   0  0  0  0  0  0  0  0  0  0  0  0
    0.0000    0.0000    0.0000 H   0  0  0  0  0  0  0  0  0  0  0  0
    0.0000    0.0000    0.0000 H   0  0  0  0  0  0  0  0  0  0  0  0
    0.0000    0.0000    0.0000 H   0  0  0  0  0  0  0  0  0  0  0  0
    0.0000    0.0000    0.0000 H   0  0  0  0  0  0  0  0  0  0  0  0
    0.0000    0.0000    0.0000 H   0  0  0  0  0  0  0  0  0  0  0  0
    0.0000    0.0000    0.0000 H   0  0  0  0  0  0  0  0  0  0  0  0
    0.0000    0.0000    0.0000 H   0  0  0  0  0  0  0  0  0  0  0  0
  1  7  1  0
  2  9  1  0
  3 12  2  0
  4  8  2  0
  4 10  1  0
  5  6  1  0
  5  9  1  0
  5 10  2  0
  6  7  2  0
  6 12  1  0
  7  8  1  0
  8 11  1  0
  1 13  1  0
  2 14  1  0
  9 15  1  0
  9 16  1  0
 10 17  1  0
 11 18  1  0
 11 19  1  0
 11 20  1  0
 12 21  1  0
M  END
>  <ALOGPS_LOGP>  (1) 
0.02

>  <ALOGPS_LOGS>  (1) 
-1.16

>  <ALOGPS_SOLUBILITY>  (1) 
1.17e+01 g/l

>  <DATABASE_ID>  (1) 
DB00147

>  <DATABASE_NAME>  (1) 
drugbank

>  <DRUGBANK_ID>  (1) 
DB00147

>  <DRUG_GROUPS>  (1) 
approved; nutraceutical

>  <EXACT_MASS>  (1) 
167.058243159

>  <FORMULA>  (1) 
C8H9NO3

>  <GENERIC_NAME>  (1) 
Pyridoxal

>  <INCHI_IDENTIFIER>  (1) 
InChI=1S/C8H9NO3/c1-5-8(12)7(4-11)6(3-10)2-9-5/h2,4,10,12H,3H2,1H3

>  <INCHI_KEY>  (1) 
RADKZDMFGJYCBB-UHFFFAOYSA-N

>  <JCHEM_ACCEPTOR_COUNT>  (1) 
4

>  <JCHEM_AVERAGE_POLARIZABILITY>  (1) 
16.28064098837296

>  <JCHEM_BIOAVAILABILITY>  (1) 
1

>  <JCHEM_DONOR_COUNT>  (1) 
2

>  <JCHEM_FORMAL_CHARGE>  (1) 
0

>  <JCHEM_GHOSE_FILTER>  (1) 
1

>  <JCHEM_IUPAC>  (1) 
3-hydroxy-5-(hydroxymethyl)-2-methylpyridine-4-carbaldehyde

>  <JCHEM_LOGP>  (1) 
0.17853081366666687

>  <JCHEM_MDDR_LIKE_RULE>  (1) 
0

>  <JCHEM_NUMBER_OF_RINGS>  (1) 
1

>  <JCHEM_PHYSIOLOGICAL_CHARGE>  (1) 
0

>  <JCHEM_PKA>  (1) 
14.658014655901226

>  <JCHEM_PKA_STRONGEST_ACIDIC>  (1) 
7.971193899104745

>  <JCHEM_PKA_STRONGEST_BASIC>  (1) 
4.110818751313327

>  <JCHEM_POLAR_SURFACE_AREA>  (1) 
70.42

>  <JCHEM_REFRACTIVITY>  (1) 
43.8734

>  <JCHEM_ROTATABLE_BOND_COUNT>  (1) 
2

>  <JCHEM_RULE_OF_FIVE>  (1) 
1

>  <JCHEM_TRADITIONAL_IUPAC>  (1) 
pyridoxal

>  <JCHEM_VEBER_RULE>  (1) 
0

>  <MOLECULAR_WEIGHT>  (1) 
167.162

>  <SALTS>  (1) 
Pyridoxal hydrochloride

>  <SECONDARY_ACCESSION_NUMBERS>  (1) 
NUTR00049

>  <SMILES>  (1) 
CC1=NC=C(CO)C(C=O)=C1O

>  <SYNONYMS>  (1) 
2-methyl-3-hydroxy-4-formyl-5-hydroxymethylpyridine; 3-hydroxy-5-(hydroxymethyl)-2-methyl-4-pyridinecarboxaldehyde; 3-hydroxy-5-(hydroxymethyl)-2-methylisonicotinaldehyde; 3-hydroxy-5-(hydroxymethyl)-2-methylpyridine-4-carboxaldehyde; Piridoxal; Pyridoxaldehyde

$$$$
