871
     RDKit          2D

 35 35  0  0  1  0  0  0  0  0999 V2000
    2.3645    0.7235    0.0000 O   0  0  0  0  0  0  0  0  0  0  0  0
    1.6500   -2.1640    0.0000 O   0  0  0  0  0  0  0  0  0  0  0  0
    4.5080   -2.1640    0.0000 O   0  0  0  0  0  0  0  0  0  0  0  0
    3.7935    1.5486    0.0000 N   0  0  0  0  0  0  0  0  0  0  0  0
    4.5080    1.9611    0.0000 C   0  0  0  0  0  0  0  0  0  0  0  0
    3.7935    0.7235    0.0000 C   0  0  0  0  0  0  0  0  0  0  0  0
    3.0791    0.3110    0.0000 C   0  0  0  0  0  0  0  0  0  0  0  0
    5.2224    2.3736    0.0000 C   0  0  0  0  0  0  0  0  0  0  0  0
    4.0955    2.6755    0.0000 C   0  0  0  0  0  0  0  0  0  0  0  0
    4.9205    1.2466    0.0000 C   0  0  0  0  0  0  0  0  0  0  0  0
    3.0791   -0.5140    0.0000 C   0  0  0  0  0  0  0  0  0  0  0  0
    3.7935   -0.9265    0.0000 C   0  0  0  0  0  0  0  0  0  0  0  0
    2.3645   -0.9265    0.0000 C   0  0  0  0  0  0  0  0  0  0  0  0
    2.3645   -1.7515    0.0000 C   0  0  0  0  0  0  0  0  0  0  0  0
    3.7935   -1.7515    0.0000 C   0  0  0  0  0  0  0  0  0  0  0  0
    3.0791   -2.1640    0.0000 C   0  0  0  0  0  0  0  0  0  0  0  0
    0.0000    0.0000    0.0000 H   0  0  0  0  0  0  0  0  0  0  0  0
    0.0000    0.0000    0.0000 H   0  0  0  0  0  0  0  0  0  0  0  0
    0.0000    0.0000    0.0000 H   0  0  0  0  0  0  0  0  0  0  0  0
    0.0000    0.0000    0.0000 H   0  0  0  0  0  0  0  0  0  0  0  0
    0.0000    0.0000    0.0000 H   0  0  0  0  0  0  0  0  0  0  0  0
    0.0000    0.0000    0.0000 H   0  0  0  0  0  0  0  0  0  0  0  0
    0.0000    0.0000    0.0000 H   0  0  0  0  0  0  0  0  0  0  0  0
    0.0000    0.0000    0.0000 H   0  0  0  0  0  0  0  0  0  0  0  0
    0.0000    0.0000    0.0000 H   0  0  0  0  0  0  0  0  0  0  0  0
    0.0000    0.0000    0.0000 H   0  0  0  0  0  0  0  0  0  0  0  0
    0.0000    0.0000    0.0000 H   0  0  0  0  0  0  0  0  0  0  0  0
    0.0000    0.0000    0.0000 H   0  0  0  0  0  0  0  0  0  0  0  0
    0.0000    0.0000    0.0000 H   0  0  0  0  0  0  0  0  0  0  0  0
    0.0000    0.0000    0.0000 H   0  0  0  0  0  0  0  0  0  0  0  0
    0.0000    0.0000    0.0000 H   0  0  0  0  0  0  0  0  0  0  0  0
    0.0000    0.0000    0.0000 H   0  0  0  0  0  0  0  0  0  0  0  0
    0.0000    0.0000    0.0000 H   0  0  0  0  0  0  0  0  0  0  0  0
    0.0000    0.0000    0.0000 H   0  0  0  0  0  0  0  0  0  0  0  0
    0.0000    0.0000    0.0000 H   0  0  0  0  0  0  0  0  0  0  0  0
  1  7  1  0
  2 14  1  0
  3 15  1  0
  4  5  1  0
  4  6  1  0
  5  8  1  0
  5  9  1  0
  5 10  1  0
  6  7  1  0
  7 11  1  0
 11 12  2  0
 11 13  1  0
 12 15  1  0
 13 14  2  0
 14 16  1  0
 15 16  2  0
  1 17  1  0
  2 18  1  0
  3 19  1  0
  4 20  1  0
  6 21  1  0
  6 22  1  0
  7 23  1  0
  8 24  1  0
  8 25  1  0
  8 26  1  0
  9 27  1  0
  9 28  1  0
  9 29  1  0
 10 30  1  0
 10 31  1  0
 10 32  1  0
 12 33  1  0
 13 34  1  0
 16 35  1  0
M  END
>  <ALOGPS_LOGP>  (1) 
0.55

>  <ALOGPS_LOGS>  (1) 
-1.59

>  <ALOGPS_SOLUBILITY>  (1) 
5.84e+00 g/l

>  <DATABASE_ID>  (1) 
DB00871

>  <DATABASE_NAME>  (1) 
drugbank

>  <DRUGBANK_ID>  (1) 
DB00871

>  <DRUG_GROUPS>  (1) 
approved

>  <EXACT_MASS>  (1) 
225.136493479

>  <FORMULA>  (1) 
C12H19NO3

>  <GENERIC_NAME>  (1) 
Terbutaline

>  <INCHI_IDENTIFIER>  (1) 
InChI=1S/C12H19NO3/c1-12(2,3)13-7-11(16)8-4-9(14)6-10(15)5-8/h4-6,11,13-16H,7H2,1-3H3

>  <INCHI_KEY>  (1) 
XWTYSIMOBUGWOL-UHFFFAOYSA-N

>  <INTERNATIONAL_BRANDS>  (1) 
Brethaire; Brethine; Bricanyl; Bricardyl; Bricasma; Bricasol; Dracanyl; Terbasmin

>  <JCHEM_ACCEPTOR_COUNT>  (1) 
4

>  <JCHEM_AVERAGE_POLARIZABILITY>  (1) 
24.77512823092836

>  <JCHEM_BIOAVAILABILITY>  (1) 
1

>  <JCHEM_DONOR_COUNT>  (1) 
4

>  <JCHEM_FORMAL_CHARGE>  (1) 
0

>  <JCHEM_GHOSE_FILTER>  (1) 
1

>  <JCHEM_IUPAC>  (1) 
5-[2-(tert-butylamino)-1-hydroxyethyl]benzene-1,3-diol

>  <JCHEM_LOGP>  (1) 
0.44103740448867645

>  <JCHEM_MDDR_LIKE_RULE>  (1) 
0

>  <JCHEM_NUMBER_OF_RINGS>  (1) 
1

>  <JCHEM_PHYSIOLOGICAL_CHARGE>  (1) 
1

>  <JCHEM_PKA>  (1) 
10.643105324934302

>  <JCHEM_PKA_STRONGEST_ACIDIC>  (1) 
8.858719391629993

>  <JCHEM_PKA_STRONGEST_BASIC>  (1) 
9.757120586219695

>  <JCHEM_POLAR_SURFACE_AREA>  (1) 
72.72

>  <JCHEM_REFRACTIVITY>  (1) 
63.03590000000001

>  <JCHEM_ROTATABLE_BOND_COUNT>  (1) 
4

>  <JCHEM_RULE_OF_FIVE>  (1) 
1

>  <JCHEM_TRADITIONAL_IUPAC>  (1) 
terbutaline

>  <JCHEM_VEBER_RULE>  (1) 
0

>  <MOLECULAR_WEIGHT>  (1) 
225.2842

>  <PRODUCTS>  (1) 
Bricanyl Tab 2.5 mg; Bricanyl Tab 5 mg; Bricanyl Turbuhaler; Terbutaline Sulfate

>  <SALTS>  (1) 
Terbutaline Sulfate

>  <SECONDARY_ACCESSION_NUMBERS>  (1) 
APRD00589

>  <SMILES>  (1) 
CC(C)(C)NCC(O)C1=CC(O)=CC(O)=C1

>  <SYNONYMS>  (1) 
Terbutalin; Terbutalina; Terbutaline (sulfate de); Terbutalini sulfas; Terbutalinsulfat; Terbutalinum

$$$$
