 
     RDKit          2D

 60 63  0  0  1  0  0  0  0  0999 V2000
    3.0938  -13.6125    0.0000 C   0  0  0  0  0  0  0  0  0  0  0  0
    3.0938  -14.4375    0.0000 C   0  0  0  0  0  0  0  0  0  0  0  0
    3.8082  -14.8500    0.0000 C   0  0  0  0  0  0  0  0  0  0  0  0
    4.5227  -14.4375    0.0000 C   0  0  0  0  0  0  0  0  0  0  0  0
    4.5227  -13.6125    0.0000 C   0  0  0  0  0  0  0  0  0  0  0  0
    3.8082  -13.2000    0.0000 C   0  0  0  0  0  0  0  0  0  0  0  0
    5.2372  -14.8500    0.0000 C   0  0  0  0  0  0  0  0  0  0  0  0
    5.9516  -14.4375    0.0000 C   0  0  0  0  0  0  0  0  0  0  0  0
    5.9516  -13.6125    0.0000 C   0  0  0  0  0  0  0  0  0  0  0  0
    5.2372  -13.2000    0.0000 C   0  0  0  0  0  0  0  0  0  0  0  0
    6.6661  -14.8500    0.0000 C   0  0  0  0  0  0  0  0  0  0  0  0
    7.3806  -14.4375    0.0000 C   0  0  0  0  0  0  0  0  0  0  0  0
    7.3806  -13.6125    0.0000 C   0  0  0  0  0  0  0  0  0  0  0  0
    6.6661  -13.2000    0.0000 C   0  0  0  0  0  0  0  0  0  0  0  0
    8.0950  -14.8500    0.0000 C   0  0  0  0  0  0  0  0  0  0  0  0
    8.8095  -14.4375    0.0000 C   0  0  0  0  0  0  0  0  0  0  0  0
    8.8095  -13.6125    0.0000 C   0  0  0  0  0  0  0  0  0  0  0  0
    8.0950  -13.2000    0.0000 C   0  0  0  0  0  0  0  0  0  0  0  0
    3.8082  -12.3751    0.0000 Cl  0  0  0  0  0  0  0  0  0  0  0  0
    3.8082  -15.6749    0.0000 O   0  0  0  0  0  0  0  0  0  0  0  0
    5.2372  -15.6750    0.0000 O   0  0  0  0  0  0  0  0  0  0  0  0
    6.6661  -15.6748    0.0000 O   0  0  0  0  0  0  0  0  0  0  0  0
    8.0950  -15.6749    0.0000 O   0  0  0  0  0  0  0  0  0  0  0  0
    9.5374  -14.8579    0.0000 C   0  0  0  0  0  0  0  0  0  0  0  0
   10.2488  -14.4473    0.0000 N   0  0  0  0  0  0  0  0  0  0  0  0
   10.9449  -14.8494    0.0000 C   0  0  0  0  0  0  0  0  0  0  0  0
   11.6488  -14.4429    0.0000 O   0  0  0  0  0  0  0  0  0  0  0  0
    9.5371  -15.6749    0.0000 O   0  0  0  0  0  0  0  0  0  0  0  0
    9.5374  -13.1921    0.0000 O   0  0  0  0  0  0  0  0  0  0  0  0
    5.2372  -12.3750    0.0000 C   0  0  0  0  0  0  0  0  0  0  0  0
    4.5239  -12.7882    0.0000 O   0  0  0  0  0  0  0  0  0  0  0  0
    8.0950  -12.3751    0.0000 N   0  0  0  0  0  0  0  0  0  0  0  0
    7.3730  -11.9581    0.0000 C   0  0  0  0  0  0  0  0  0  0  0  0
    8.8020  -11.9669    0.0000 C   0  0  0  0  0  0  0  0  0  0  0  0
    7.3806  -15.2625    0.0000 O   0  0  0  0  0  0  0  0  0  0  0  0
    0.0000    0.0000    0.0000 H   0  0  0  0  0  0  0  0  0  0  0  0
    0.0000    0.0000    0.0000 H   0  0  0  0  0  0  0  0  0  0  0  0
    0.0000    0.0000    0.0000 H   0  0  0  0  0  0  0  0  0  0  0  0
    0.0000    0.0000    0.0000 H   0  0  0  0  0  0  0  0  0  0  0  0
    0.0000    0.0000    0.0000 H   0  0  0  0  0  0  0  0  0  0  0  0
    0.0000    0.0000    0.0000 H   0  0  0  0  0  0  0  0  0  0  0  0
    0.0000    0.0000    0.0000 H   0  0  0  0  0  0  0  0  0  0  0  0
    0.0000    0.0000    0.0000 H   0  0  0  0  0  0  0  0  0  0  0  0
    0.0000    0.0000    0.0000 H   0  0  0  0  0  0  0  0  0  0  0  0
    0.0000    0.0000    0.0000 H   0  0  0  0  0  0  0  0  0  0  0  0
    0.0000    0.0000    0.0000 H   0  0  0  0  0  0  0  0  0  0  0  0
    0.0000    0.0000    0.0000 H   0  0  0  0  0  0  0  0  0  0  0  0
    0.0000    0.0000    0.0000 H   0  0  0  0  0  0  0  0  0  0  0  0
    0.0000    0.0000    0.0000 H   0  0  0  0  0  0  0  0  0  0  0  0
    0.0000    0.0000    0.0000 H   0  0  0  0  0  0  0  0  0  0  0  0
    0.0000    0.0000    0.0000 H   0  0  0  0  0  0  0  0  0  0  0  0
    0.0000    0.0000    0.0000 H   0  0  0  0  0  0  0  0  0  0  0  0
    0.0000    0.0000    0.0000 H   0  0  0  0  0  0  0  0  0  0  0  0
    0.0000    0.0000    0.0000 H   0  0  0  0  0  0  0  0  0  0  0  0
    0.0000    0.0000    0.0000 H   0  0  0  0  0  0  0  0  0  0  0  0
    0.0000    0.0000    0.0000 H   0  0  0  0  0  0  0  0  0  0  0  0
    0.0000    0.0000    0.0000 H   0  0  0  0  0  0  0  0  0  0  0  0
    0.0000    0.0000    0.0000 H   0  0  0  0  0  0  0  0  0  0  0  0
    0.0000    0.0000    0.0000 H   0  0  0  0  0  0  0  0  0  0  0  0
    0.0000    0.0000    0.0000 H   0  0  0  0  0  0  0  0  0  0  0  0
  1  2  2  0
  2  3  1  0
  3  4  2  0
  4  5  1  0
  5  6  2  0
  1  6  1  0
  4  7  1  0
  7  8  1  0
  8  9  1  0
  9 10  1  0
  5 10  1  0
  8 11  2  0
 11 12  1  0
 12 13  1  0
 13 14  1  0
  9 14  1  0
 12 15  1  0
 15 16  1  0
 16 17  2  0
 17 18  1  0
 13 18  1  0
  6 19  1  0
  3 20  1  0
  7 21  2  0
 11 22  1  0
 15 23  2  0
 16 24  1  0
 24 25  1  0
 25 26  1  0
 26 27  1  0
 24 28  2  0
 17 29  1  0
 10 30  1  6
 10 31  1  0
 18 32  1  6
 32 33  1  0
 32 34  1  0
 12 35  1  6
  1 36  1  0
  2 37  1  0
  9 38  1  6
 13 39  1  6
 14 40  1  0
 14 41  1  0
 18 42  1  0
 20 43  1  0
 22 44  1  0
 25 45  1  0
 26 46  1  0
 26 47  1  0
 27 48  1  0
 29 49  1  0
 30 50  1  0
 30 51  1  0
 30 52  1  0
 31 53  1  0
 33 54  1  0
 33 55  1  0
 33 56  1  0
 34 57  1  0
 34 58  1  0
 34 59  1  0
 35 60  1  0
M  END
>  <ALOGPS_LOGP>  (1) 
-0.45

>  <ALOGPS_LOGS>  (1) 
-2.46

>  <ALOGPS_SOLUBILITY>  (1) 
1.77e+00 g/l

>  <DATABASE_ID>  (1) 
DB00453

>  <DATABASE_NAME>  (1) 
drugbank

>  <DRUGBANK_ID>  (1) 
DB00453

>  <DRUG_GROUPS>  (1) 
approved

>  <EXACT_MASS>  (1) 
508.124858115

>  <FORMULA>  (1) 
C23H25ClN2O9

>  <GENERIC_NAME>  (1) 
Clomocycline

>  <INCHI_IDENTIFIER>  (1) 
InChI=1S/C23H25ClN2O9/c1-22(34)8-6-9-16(26(2)3)18(30)14(21(33)25-7-27)20(32)23(9,35)19(31)12(8)17(29)13-11(28)5-4-10(24)15(13)22/h4-5,8-9,16,27-28,30-31,34-35H,6-7H2,1-3H3,(H,25,33)/t8-,9-,16-,22-,23-/m0/s1

>  <INCHI_KEY>  (1) 
GJGDLRSSCNAKGL-KMVLDZISSA-N

>  <JCHEM_ACCEPTOR_COUNT>  (1) 
10

>  <JCHEM_AVERAGE_POLARIZABILITY>  (1) 
49.28660430849736

>  <JCHEM_BIOAVAILABILITY>  (1) 
0

>  <JCHEM_DONOR_COUNT>  (1) 
7

>  <JCHEM_FORMAL_CHARGE>  (1) 
0

>  <JCHEM_GHOSE_FILTER>  (1) 
0

>  <JCHEM_IUPAC>  (1) 
(4S,4aS,5aS,6S,12aS)-7-chloro-4-(dimethylamino)-3,6,10,12,12a-pentahydroxy-N-(hydroxymethyl)-6-methyl-1,11-dioxo-1,4,4a,5,5a,6,11,12a-octahydrotetracene-2-carboxamide

>  <JCHEM_LOGP>  (1) 
-3.2647724806416107

>  <JCHEM_MDDR_LIKE_RULE>  (1) 
0

>  <JCHEM_NUMBER_OF_RINGS>  (1) 
4

>  <JCHEM_PHYSIOLOGICAL_CHARGE>  (1) 
-1

>  <JCHEM_PKA>  (1) 
4.395693087131214

>  <JCHEM_PKA_STRONGEST_ACIDIC>  (1) 
0.01265563181428142

>  <JCHEM_PKA_STRONGEST_BASIC>  (1) 
8.229471529908187

>  <JCHEM_POLAR_SURFACE_AREA>  (1) 
187.85999999999999

>  <JCHEM_REFRACTIVITY>  (1) 
124.99159999999996

>  <JCHEM_ROTATABLE_BOND_COUNT>  (1) 
3

>  <JCHEM_RULE_OF_FIVE>  (1) 
0

>  <JCHEM_TRADITIONAL_IUPAC>  (1) 
甲氯环素

>  <JCHEM_VEBER_RULE>  (1) 
0

>  <MOLECULAR_WEIGHT>  (1) 
508.906

>  <SECONDARY_ACCESSION_NUMBERS>  (1) 
APRD00343

>  <SMILES>  (1) 
[H][C@@]12C[C@@]3([H])C(=C(O)[C@]1(O)C(=O)C(C(=O)NCO)=C(O)[C@H]2N(C)C)C(=O)C1=C(O)C=CC(Cl)=C1[C@@]3(C)O

>  <SYNONYMS>  (1) 
Chlormethylenecycline; Clomociclina; Clomocyclinum

$$$$
