745
     RDKit          2D

 34 35  0  0  1  0  0  0  0  0999 V2000
    3.0791    0.2846    0.0000 S   0  0  0  0  0  0  0  0  0  0  0  0
    2.3645   -0.1279    0.0000 O   0  0  0  0  0  0  0  0  0  0  0  0
    1.6500    1.1096    0.0000 O   0  0  0  0  0  0  0  0  0  0  0  0
    2.3645    2.3472    0.0000 N   0  0  0  0  0  0  0  0  0  0  0  0
    3.7935   -0.1279    0.0000 C   0  0  0  0  0  0  0  0  0  0  0  0
    3.7935   -0.9529    0.0000 C   0  0  0  0  0  0  0  0  0  0  0  0
    4.5080    0.2846    0.0000 C   0  0  0  0  0  0  0  0  0  0  0  0
    3.0791    1.1096    0.0000 C   0  0  0  0  0  0  0  0  0  0  0  0
    4.5080   -1.3654    0.0000 C   0  0  0  0  0  0  0  0  0  0  0  0
    4.5080    1.1096    0.0000 C   0  0  0  0  0  0  0  0  0  0  0  0
    3.0791   -1.3654    0.0000 C   0  0  0  0  0  0  0  0  0  0  0  0
    5.2224   -0.1279    0.0000 C   0  0  0  0  0  0  0  0  0  0  0  0
    4.5080   -2.1904    0.0000 C   0  0  0  0  0  0  0  0  0  0  0  0
    5.2224    1.5222    0.0000 C   0  0  0  0  0  0  0  0  0  0  0  0
    3.0791   -2.1904    0.0000 C   0  0  0  0  0  0  0  0  0  0  0  0
    5.9370    0.2846    0.0000 C   0  0  0  0  0  0  0  0  0  0  0  0
    3.7935   -2.6029    0.0000 C   0  0  0  0  0  0  0  0  0  0  0  0
    5.9370    1.1096    0.0000 C   0  0  0  0  0  0  0  0  0  0  0  0
    2.3645    1.5222    0.0000 C   0  0  0  0  0  0  0  0  0  0  0  0
    0.0000    0.0000    0.0000 H   0  0  0  0  0  0  0  0  0  0  0  0
    0.0000    0.0000    0.0000 H   0  0  0  0  0  0  0  0  0  0  0  0
    0.0000    0.0000    0.0000 H   0  0  0  0  0  0  0  0  0  0  0  0
    0.0000    0.0000    0.0000 H   0  0  0  0  0  0  0  0  0  0  0  0
    0.0000    0.0000    0.0000 H   0  0  0  0  0  0  0  0  0  0  0  0
    0.0000    0.0000    0.0000 H   0  0  0  0  0  0  0  0  0  0  0  0
    0.0000    0.0000    0.0000 H   0  0  0  0  0  0  0  0  0  0  0  0
    0.0000    0.0000    0.0000 H   0  0  0  0  0  0  0  0  0  0  0  0
    0.0000    0.0000    0.0000 H   0  0  0  0  0  0  0  0  0  0  0  0
    0.0000    0.0000    0.0000 H   0  0  0  0  0  0  0  0  0  0  0  0
    0.0000    0.0000    0.0000 H   0  0  0  0  0  0  0  0  0  0  0  0
    0.0000    0.0000    0.0000 H   0  0  0  0  0  0  0  0  0  0  0  0
    0.0000    0.0000    0.0000 H   0  0  0  0  0  0  0  0  0  0  0  0
    0.0000    0.0000    0.0000 H   0  0  0  0  0  0  0  0  0  0  0  0
    0.0000    0.0000    0.0000 H   0  0  0  0  0  0  0  0  0  0  0  0
  1  2  2  0
  1  5  1  0
  1  8  1  0
  3 19  2  0
  4 19  1  0
  5  6  1  0
  5  7  1  0
  6  9  2  0
  6 11  1  0
  7 10  2  0
  7 12  1  0
  8 19  1  0
  9 13  1  0
 10 14  1  0
 11 15  2  0
 12 16  2  0
 13 17  2  0
 14 18  2  0
 15 17  1  0
 16 18  1  0
  4 20  1  0
  4 21  1  0
  5 22  1  0
  8 23  1  0
  8 24  1  0
  9 25  1  0
 10 26  1  0
 11 27  1  0
 12 28  1  0
 13 29  1  0
 14 30  1  0
 15 31  1  0
 16 32  1  0
 17 33  1  0
 18 34  1  0
M  END
>  <ALOGPS_LOGP>  (1) 
1.75

>  <ALOGPS_LOGS>  (1) 
-2.64

>  <ALOGPS_SOLUBILITY>  (1) 
6.22e-01 g/l

>  <DATABASE_ID>  (1) 
DB00745

>  <DATABASE_NAME>  (1) 
drugbank

>  <DRUGBANK_ID>  (1) 
DB00745

>  <DRUG_GROUPS>  (1) 
approved; investigational

>  <EXACT_MASS>  (1) 
273.082349419

>  <FORMULA>  (1) 
C15H15NO2S

>  <GENERIC_NAME>  (1) 
Modafinil

>  <INCHI_IDENTIFIER>  (1) 
InChI=1S/C15H15NO2S/c16-14(17)11-19(18)15(12-7-3-1-4-8-12)13-9-5-2-6-10-13/h1-10,15H,11H2,(H2,16,17)

>  <INCHI_KEY>  (1) 
YFGHCGITMMYXAQ-UHFFFAOYSA-N

>  <INTERNATIONAL_BRANDS>  (1) 
Alertex; Aspendos; Forcilin; Mentix; Modasomil; Modavigil; Modiodal; Provake; Resotyl; Sparlon; Stavigile; Vigicer; Vigil; Zalux

>  <JCHEM_ACCEPTOR_COUNT>  (1) 
2

>  <JCHEM_AVERAGE_POLARIZABILITY>  (1) 
28.71469098957113

>  <JCHEM_BIOAVAILABILITY>  (1) 
1

>  <JCHEM_DONOR_COUNT>  (1) 
1

>  <JCHEM_FORMAL_CHARGE>  (1) 
0

>  <JCHEM_GHOSE_FILTER>  (1) 
1

>  <JCHEM_IUPAC>  (1) 
2-diphenylmethanesulfinylacetamide

>  <JCHEM_LOGP>  (1) 
1.5328344403333334

>  <JCHEM_MDDR_LIKE_RULE>  (1) 
0

>  <JCHEM_NUMBER_OF_RINGS>  (1) 
2

>  <JCHEM_PHYSIOLOGICAL_CHARGE>  (1) 
0

>  <JCHEM_PKA>  (1) 
19.252638598305513

>  <JCHEM_PKA_STRONGEST_ACIDIC>  (1) 
8.83976603780411

>  <JCHEM_PKA_STRONGEST_BASIC>  (1) 
-4.35941540875888

>  <JCHEM_POLAR_SURFACE_AREA>  (1) 
60.16

>  <JCHEM_REFRACTIVITY>  (1) 
77.38860000000003

>  <JCHEM_ROTATABLE_BOND_COUNT>  (1) 
5

>  <JCHEM_RULE_OF_FIVE>  (1) 
1

>  <JCHEM_TRADITIONAL_IUPAC>  (1) 
modafinil

>  <JCHEM_VEBER_RULE>  (1) 
0

>  <MOLECULAR_WEIGHT>  (1) 
273.35

>  <PRODUCTS>  (1) 
Alertec; Apo-modafinil; Auro-modafinil; Bio-modafinil; Ipg-modafinil; Mar-modafinil; Modafinil; Provigil; Teva-modafinil

>  <SECONDARY_ACCESSION_NUMBERS>  (1) 
APRD00534

>  <SMILES>  (1) 
NC(=O)CS(=O)C(C1=CC=CC=C1)C1=CC=CC=C1

>  <SYNONYMS>  (1) 
2-((diphenylmethyl)sulfinyl)acetamide; Modafinil; Modafinilo; Modafinilum

$$$$
