
     RDKit          2D

 52 54  0  0  1  0  0  0  0  0999 V2000
   -2.7399    4.6525    0.0000 C   0  0  0  0  0  0  0  0  0  0  0  0
   -2.0254    3.4150    0.0000 C   0  0  0  0  0  0  0  0  0  0  0  0
   -1.3109    4.6525    0.0000 C   0  0  0  0  0  0  0  0  0  0  0  0
   -3.4544    4.2400    0.0000 C   0  0  0  0  0  0  0  0  0  0  0  0
   -2.7399    3.0025    0.0000 C   0  0  0  0  0  0  0  0  0  0  0  0
   -0.5965    4.2400    0.0000 C   0  0  0  0  0  0  0  0  0  0  0  0
   -6.3122    3.4150    0.0000 C   0  0  0  0  0  0  0  0  0  0  0  0
   -7.0267    3.0025    0.0000 C   0  0  0  0  0  0  0  0  0  0  0  0
    0.8717    4.3170    0.0000 C   0  0  0  0  0  0  0  0  0  0  0  0
   -2.0254    4.2400    0.0000 C   0  0  0  0  0  0  0  0  0  0  0  0
   -3.4544    3.4150    0.0000 C   0  0  0  0  0  0  0  0  0  0  0  0
    0.1180    4.6525    0.0000 C   0  0  0  0  0  0  0  0  0  0  0  0
   -5.5978    3.0025    0.0000 C   0  0  0  0  0  0  0  0  0  0  0  0
   -7.7412    3.4150    0.0000 C   0  0  0  0  0  0  0  0  0  0  0  0
    0.2042    5.4730    0.0000 C   0  0  0  0  0  0  0  0  0  0  0  0
    1.0112    5.6445    0.0000 C   0  0  0  0  0  0  0  0  0  0  0  0
   -4.1688    3.0025    0.0000 C   0  0  0  0  0  0  0  0  0  0  0  0
   -0.3478    6.0861    0.0000 C   0  0  0  0  0  0  0  0  0  0  0  0
   -5.5978    2.1775    0.0000 C   0  0  0  0  0  0  0  0  0  0  0  0
    0.7141    7.0422    0.0000 C   0  0  0  0  0  0  0  0  0  0  0  0
    0.9690    7.8269    0.0000 N   0  0  0  0  0  0  0  0  0  0  0  0
    1.4237    4.9301    0.0000 N   0  0  0  0  0  0  0  0  0  0  0  0
   -4.8833    3.4150    0.0000 N   0  0  0  0  0  0  0  0  0  0  0  0
    1.2661    6.4292    0.0000 N   0  0  0  0  0  0  0  0  0  0  0  0
   -0.0929    6.8707    0.0000 N   0  0  0  0  0  0  0  0  0  0  0  0
   -8.4557    3.0025    0.0000 O   0  0  0  0  0  0  0  0  0  0  0  0
   -7.7412    4.2400    0.0000 O   0  0  0  0  0  0  0  0  0  0  0  0
   -4.1688    2.1775    0.0000 O   0  0  0  0  0  0  0  0  0  0  0  0
   -1.1548    5.9146    0.0000 O   0  0  0  0  0  0  0  0  0  0  0  0
   -4.8833    1.7650    0.0000 O   0  0  0  0  0  0  0  0  0  0  0  0
   -6.3122    1.7650    0.0000 O   0  0  0  0  0  0  0  0  0  0  0  0
    0.0000    0.0000    0.0000 H   0  0  0  0  0  0  0  0  0  0  0  0
    0.0000    0.0000    0.0000 H   0  0  0  0  0  0  0  0  0  0  0  0
    0.0000    0.0000    0.0000 H   0  0  0  0  0  0  0  0  0  0  0  0
    0.0000    0.0000    0.0000 H   0  0  0  0  0  0  0  0  0  0  0  0
    0.0000    0.0000    0.0000 H   0  0  0  0  0  0  0  0  0  0  0  0
    0.0000    0.0000    0.0000 H   0  0  0  0  0  0  0  0  0  0  0  0
    0.0000    0.0000    0.0000 H   0  0  0  0  0  0  0  0  0  0  0  0
    0.0000    0.0000    0.0000 H   0  0  0  0  0  0  0  0  0  0  0  0
    0.0000    0.0000    0.0000 H   0  0  0  0  0  0  0  0  0  0  0  0
    0.0000    0.0000    0.0000 H   0  0  0  0  0  0  0  0  0  0  0  0
    0.0000    0.0000    0.0000 H   0  0  0  0  0  0  0  0  0  0  0  0
    0.0000    0.0000    0.0000 H   0  0  0  0  0  0  0  0  0  0  0  0
    0.0000    0.0000    0.0000 H   0  0  0  0  0  0  0  0  0  0  0  0
    0.0000    0.0000    0.0000 H   0  0  0  0  0  0  0  0  0  0  0  0
    0.0000    0.0000    0.0000 H   0  0  0  0  0  0  0  0  0  0  0  0
    0.0000    0.0000    0.0000 H   0  0  0  0  0  0  0  0  0  0  0  0
    0.0000    0.0000    0.0000 H   0  0  0  0  0  0  0  0  0  0  0  0
    0.0000    0.0000    0.0000 H   0  0  0  0  0  0  0  0  0  0  0  0
    0.0000    0.0000    0.0000 H   0  0  0  0  0  0  0  0  0  0  0  0
    0.0000    0.0000    0.0000 H   0  0  0  0  0  0  0  0  0  0  0  0
    0.0000    0.0000    0.0000 H   0  0  0  0  0  0  0  0  0  0  0  0
  4  1  2  0
  5  2  1  0
  6  3  1  0
  8  7  1  0
 10  1  1  0
 10  2  2  0
 10  3  1  0
 11  4  1  0
 11  5  2  0
 12  6  1  0
 12  9  2  0
 13  7  1  1
 14  8  1  0
 15 12  1  0
 16 15  2  0
 17 11  1  0
 18 15  1  0
 19 13  1  0
 21 20  2  3
 22  9  1  0
 22 16  1  0
 13 23  1  0
 23 17  1  0
 24 16  1  0
 24 20  1  0
 25 18  2  0
 25 20  1  0
 26 14  2  0
 27 14  1  0
 28 17  2  0
 29 18  1  0
 30 19  2  0
 31 19  1  0
  1 32  1  0
  2 33  1  0
  3 34  1  0
  3 35  1  0
  4 36  1  0
  5 37  1  0
  6 38  1  0
  6 39  1  0
  7 40  1  0
  7 41  1  0
  8 42  1  0
  8 43  1  0
  9 44  1  0
 13 45  1  0
 21 46  1  0
 22 47  1  0
 23 48  1  0
 24 49  1  0
 27 50  1  0
 29 51  1  0
 31 52  1  0
M  END
>  <ALOGPS_LOGP>  (1) 
-0.19

>  <ALOGPS_LOGS>  (1) 
-3.67

>  <ALOGPS_SOLUBILITY>  (1) 
9.05e-02 g/l

>  <DATABASE_ID>  (1) 
DB00642

>  <DATABASE_NAME>  (1) 
drugbank

>  <DRUGBANK_ID>  (1) 
DB00642

>  <DRUG_GROUPS>  (1) 
approved; investigational

>  <EXACT_MASS>  (1) 
427.149183429

>  <FORMULA>  (1) 
C20H21N5O6

>  <GENERIC_NAME>  (1) 
Pemetrexed

>  <INCHI_IDENTIFIER>  (1) 
InChI=1S/C20H21N5O6/c21-20-24-16-15(18(29)25-20)12(9-22-16)6-3-10-1-4-11(5-2-10)17(28)23-13(19(30)31)7-8-14(26)27/h1-2,4-5,9,13H,3,6-8H2,(H,23,28)(H,26,27)(H,30,31)(H4,21,22,24,25,29)/t13-/m0/s1

>  <INCHI_KEY>  (1) 
WBXPDJSOTKVWSJ-ZDUSSCGKSA-N

>  <JCHEM_ACCEPTOR_COUNT>  (1) 
9

>  <JCHEM_AVERAGE_POLARIZABILITY>  (1) 
43.05559720514185

>  <JCHEM_BIOAVAILABILITY>  (1) 
1

>  <JCHEM_DONOR_COUNT>  (1) 
7

>  <JCHEM_FORMAL_CHARGE>  (1) 
0

>  <JCHEM_GHOSE_FILTER>  (1) 
1

>  <JCHEM_IUPAC>  (1) 
(2S)-2-{[4-(2-{4-hydroxy-2-imino-1H,2H,7H-pyrrolo[2,3-d]pyrimidin-5-yl}ethyl)phenyl]formamido}pentanedioic acid

>  <JCHEM_LOGP>  (1) 
-0.2507715674823349

>  <JCHEM_MDDR_LIKE_RULE>  (1) 
1

>  <JCHEM_NUMBER_OF_RINGS>  (1) 
3

>  <JCHEM_PHYSIOLOGICAL_CHARGE>  (1) 
-1

>  <JCHEM_PKA>  (1) 
4.135687555776541

>  <JCHEM_PKA_STRONGEST_ACIDIC>  (1) 
3.340669201632227

>  <JCHEM_PKA_STRONGEST_BASIC>  (1) 
7.133013989928419

>  <JCHEM_POLAR_SURFACE_AREA>  (1) 
187.95999999999998

>  <JCHEM_REFRACTIVITY>  (1) 
120.46409999999999

>  <JCHEM_ROTATABLE_BOND_COUNT>  (1) 
9

>  <JCHEM_RULE_OF_FIVE>  (1) 
0

>  <JCHEM_TRADITIONAL_IUPAC>  (1) 
multitargeted antifolate

>  <JCHEM_VEBER_RULE>  (1) 
0

>  <MOLECULAR_WEIGHT>  (1) 
427.4106

>  <PRODUCTS>  (1) 
Act Pemetrexed; Alimta; Ciambra; Pemetrexed; Pemetrexed Accord Solution for Infusion; Pemetrexed Disodium for Injection; Pemetrexed Hospira; Pemetrexed Lilly; Pemetrexed Medac; Pemetrexed Sandoz; Pemetrexed for Injection; Taro-pemetrexed

>  <SALTS>  (1) 
Pemetrexed disodium; Pemetrexed disodium hemipentahydrate; Pemetrexed disodium heptahydrate

>  <SECONDARY_ACCESSION_NUMBERS>  (1) 
APRD00573; EXPT02075

>  <SMILES>  (1) 
[H][C@@](CCC(O)=O)(NC(=O)C1=CC=C(CCC2=CNC3=C2C(O)=NC(=N)N3)C=C1)C(O)=O

$$$$
