
     RDKit          2D

 54 55  0  0  0  0  0  0  0  0999 V2000
   -3.4473    0.0884    0.0000 N   0  0  0  0  0  0  0  0  0  0  0  0
   -4.1618   -0.3241    0.0000 C   0  0  0  0  0  0  0  0  0  0  0  0
   -4.1618   -1.1491    0.0000 C   0  0  0  0  0  0  0  0  0  0  0  0
   -3.4473   -1.5616    0.0000 C   0  0  0  0  0  0  0  0  0  0  0  0
   -2.7329   -1.1491    0.0000 C   0  0  0  0  0  0  0  0  0  0  0  0
   -2.7329   -0.3241    0.0000 C   0  0  0  0  0  0  0  0  0  0  0  0
   -2.0184    0.0884    0.0000 C   0  0  0  0  0  0  0  0  0  0  0  0
   -1.3039   -0.3241    0.0000 C   0  0  0  0  0  0  0  0  0  0  0  0
   -0.5894    0.0884    0.0000 C   0  0  0  0  0  0  0  0  0  0  0  0
    0.1250   -0.3241    0.0000 N   0  0  0  0  0  0  0  0  0  0  0  0
    0.8395    0.0884    0.0000 C   0  0  0  0  0  0  0  0  0  0  0  0
    1.5540   -0.3241    0.0000 C   0  0  0  0  0  0  0  0  0  0  0  0
    0.8395    0.9134    0.0000 C   0  0  0  0  0  0  0  0  0  0  0  0
    0.1250   -1.1491    0.0000 C   0  0  0  0  0  0  0  0  0  0  0  0
   -0.5894   -1.5616    0.0000 C   0  0  0  0  0  0  0  0  0  0  0  0
    0.8395   -1.5616    0.0000 C   0  0  0  0  0  0  0  0  0  0  0  0
   -2.0184    0.9134    0.0000 C   0  0  0  0  0  0  0  0  0  0  0  0
   -1.3039    1.3259    0.0000 N   0  0  0  0  0  0  0  0  0  0  0  0
   -1.9889   -2.1214    0.0000 C   0  0  0  0  0  0  0  0  0  0  0  0
   -2.7329    1.3259    0.0000 O   0  0  0  0  0  0  0  0  0  0  0  0
   -2.7033   -2.5339    0.0000 C   0  0  0  0  0  0  0  0  0  0  0  0
   -2.7033   -3.3589    0.0000 C   0  0  0  0  0  0  0  0  0  0  0  0
   -1.9889   -3.7715    0.0000 C   0  0  0  0  0  0  0  0  0  0  0  0
   -1.2745   -3.3589    0.0000 C   0  0  0  0  0  0  0  0  0  0  0  0
   -1.2745   -2.5339    0.0000 C   0  0  0  0  0  0  0  0  0  0  0  0
    0.0000    0.0000    0.0000 H   0  0  0  0  0  0  0  0  0  0  0  0
    0.0000    0.0000    0.0000 H   0  0  0  0  0  0  0  0  0  0  0  0
    0.0000    0.0000    0.0000 H   0  0  0  0  0  0  0  0  0  0  0  0
    0.0000    0.0000    0.0000 H   0  0  0  0  0  0  0  0  0  0  0  0
    0.0000    0.0000    0.0000 H   0  0  0  0  0  0  0  0  0  0  0  0
    0.0000    0.0000    0.0000 H   0  0  0  0  0  0  0  0  0  0  0  0
    0.0000    0.0000    0.0000 H   0  0  0  0  0  0  0  0  0  0  0  0
    0.0000    0.0000    0.0000 H   0  0  0  0  0  0  0  0  0  0  0  0
    0.0000    0.0000    0.0000 H   0  0  0  0  0  0  0  0  0  0  0  0
    0.0000    0.0000    0.0000 H   0  0  0  0  0  0  0  0  0  0  0  0
    0.0000    0.0000    0.0000 H   0  0  0  0  0  0  0  0  0  0  0  0
    0.0000    0.0000    0.0000 H   0  0  0  0  0  0  0  0  0  0  0  0
    0.0000    0.0000    0.0000 H   0  0  0  0  0  0  0  0  0  0  0  0
    0.0000    0.0000    0.0000 H   0  0  0  0  0  0  0  0  0  0  0  0
    0.0000    0.0000    0.0000 H   0  0  0  0  0  0  0  0  0  0  0  0
    0.0000    0.0000    0.0000 H   0  0  0  0  0  0  0  0  0  0  0  0
    0.0000    0.0000    0.0000 H   0  0  0  0  0  0  0  0  0  0  0  0
    0.0000    0.0000    0.0000 H   0  0  0  0  0  0  0  0  0  0  0  0
    0.0000    0.0000    0.0000 H   0  0  0  0  0  0  0  0  0  0  0  0
    0.0000    0.0000    0.0000 H   0  0  0  0  0  0  0  0  0  0  0  0
    0.0000    0.0000    0.0000 H   0  0  0  0  0  0  0  0  0  0  0  0
    0.0000    0.0000    0.0000 H   0  0  0  0  0  0  0  0  0  0  0  0
    0.0000    0.0000    0.0000 H   0  0  0  0  0  0  0  0  0  0  0  0
    0.0000    0.0000    0.0000 H   0  0  0  0  0  0  0  0  0  0  0  0
    0.0000    0.0000    0.0000 H   0  0  0  0  0  0  0  0  0  0  0  0
    0.0000    0.0000    0.0000 H   0  0  0  0  0  0  0  0  0  0  0  0
    0.0000    0.0000    0.0000 H   0  0  0  0  0  0  0  0  0  0  0  0
    0.0000    0.0000    0.0000 H   0  0  0  0  0  0  0  0  0  0  0  0
    0.0000    0.0000    0.0000 H   0  0  0  0  0  0  0  0  0  0  0  0
  1  2  2  0
  1  6  1  0
  2  3  1  0
  3  4  2  0
  4  5  1  0
  5  6  2  0
  6  7  1  0
  7  8  1  0
  8  9  1  0
  9 10  1  0
 10 11  1  0
 11 12  1  0
 11 13  1  0
 10 14  1  0
 14 15  1  0
 14 16  1  0
  7 17  1  0
 17 18  1  0
  7 19  1  0
 17 20  2  0
 19 21  2  0
 19 25  1  0
 21 22  1  0
 22 23  2  0
 23 24  1  0
 24 25  2  0
  2 26  1  0
  3 27  1  0
  4 28  1  0
  5 29  1  0
  8 30  1  0
  8 31  1  0
  9 32  1  0
  9 33  1  0
 11 34  1  0
 12 35  1  0
 12 36  1  0
 12 37  1  0
 13 38  1  0
 13 39  1  0
 13 40  1  0
 14 41  1  0
 15 42  1  0
 15 43  1  0
 15 44  1  0
 16 45  1  0
 16 46  1  0
 16 47  1  0
 18 48  1  0
 18 49  1  0
 21 50  1  0
 22 51  1  0
 23 52  1  0
 24 53  1  0
 25 54  1  0
M  END
>  <ALOGPS_LOGP>  (1) 
3.21

>  <ALOGPS_LOGS>  (1) 
-3.84

>  <ALOGPS_SOLUBILITY>  (1) 
4.93e-02 g/l

>  <DATABASE_ID>  (1) 
DB00280

>  <DATABASE_NAME>  (1) 
drugbank

>  <DRUGBANK_ID>  (1) 
DB00280

>  <DRUG_GROUPS>  (1) 
approved

>  <EXACT_MASS>  (1) 
339.231062565

>  <FORMULA>  (1) 
C21H29N3O

>  <GENERIC_NAME>  (1) 
Disopyramide

>  <INCHI_IDENTIFIER>  (1) 
InChI=1S/C21H29N3O/c1-16(2)24(17(3)4)15-13-21(20(22)25,18-10-6-5-7-11-18)19-12-8-9-14-23-19/h5-12,14,16-17H,13,15H2,1-4H3,(H2,22,25)

>  <INCHI_KEY>  (1) 
UVTNFZQICZKOEM-UHFFFAOYSA-N

>  <INTERNATIONAL_BRANDS>  (1) 
Dicorantil; Isorythm; Lispine; Ritmodan

>  <JCHEM_ACCEPTOR_COUNT>  (1) 
3

>  <JCHEM_AVERAGE_POLARIZABILITY>  (1) 
38.81875419881408

>  <JCHEM_BIOAVAILABILITY>  (1) 
1

>  <JCHEM_DONOR_COUNT>  (1) 
1

>  <JCHEM_FORMAL_CHARGE>  (1) 
0

>  <JCHEM_GHOSE_FILTER>  (1) 
1

>  <JCHEM_IUPAC>  (1) 
4-[bis(propan-2-yl)amino]-2-phenyl-2-(pyridin-2-yl)butanamide

>  <JCHEM_LOGP>  (1) 
3.4684364846666664

>  <JCHEM_MDDR_LIKE_RULE>  (1) 
0

>  <JCHEM_NUMBER_OF_RINGS>  (1) 
2

>  <JCHEM_PHYSIOLOGICAL_CHARGE>  (1) 
1

>  <JCHEM_PKA_STRONGEST_ACIDIC>  (1) 
16.190354871132648

>  <JCHEM_PKA_STRONGEST_BASIC>  (1) 
10.419003409368996

>  <JCHEM_POLAR_SURFACE_AREA>  (1) 
59.220000000000006

>  <JCHEM_REFRACTIVITY>  (1) 
102.3002

>  <JCHEM_ROTATABLE_BOND_COUNT>  (1) 
8

>  <JCHEM_RULE_OF_FIVE>  (1) 
1

>  <JCHEM_TRADITIONAL_IUPAC>  (1) 
disopyramide

>  <JCHEM_VEBER_RULE>  (1) 
0

>  <MOLECULAR_WEIGHT>  (1) 
339.4745

>  <PRODUCTS>  (1) 
Disopyramide Phosphate; Norpace; Norpace CR; Norpace CR 150mg; Norpace Cap 100mg; Norpace Cap 150mg; Rythmodan; Rythmodan Cap 100mg; Rythmodan Cap 150mg; Rythmodan Capsules 100mg; Rythmodan Capsules 150mg; Rythmodan LA Tab 250mg; Rythmodan-LA; Rythmodan-LA 250mg

>  <SALTS>  (1) 
Disopyramide phosphate

>  <SECONDARY_ACCESSION_NUMBERS>  (1) 
APRD00507

>  <SMILES>  (1) 
CC(C)N(CCC(C(N)=O)(C1=CC=CC=C1)C1=NC=CC=C1)C(C)C

>  <SYNONYMS>  (1) 
Disopiramida; Disopyramidum

$$$$
