174
     RDKit          2D

 17 16  0  0  1  0  0  0  0  0999 V2000
    5.6655   -0.0784    0.0000 O   0  0  0  0  0  0  0  0  0  0  0  0
    4.9509    1.1592    0.0000 O   0  0  0  0  0  0  0  0  0  0  0  0
    2.8075   -0.9034    0.0000 O   0  0  0  0  0  0  0  0  0  0  0  0
    4.2365   -0.9034    0.0000 N   0  0  0  0  0  0  0  0  0  0  0  0
    2.0930    0.3341    0.0000 N   0  0  0  0  0  0  0  0  0  0  0  0
    4.2365   -0.0784    0.0000 C   0  0  0  0  0  0  0  0  0  0  0  0
    3.5220    0.3341    0.0000 C   0  0  0  0  0  0  0  0  0  0  0  0
    4.9509    0.3341    0.0000 C   0  0  0  0  0  0  0  0  0  0  0  0
    2.8075   -0.0784    0.0000 C   0  0  0  0  0  0  0  0  0  0  0  0
    0.0000    0.0000    0.0000 H   0  0  0  0  0  0  0  0  0  0  0  0
    0.0000    0.0000    0.0000 H   0  0  0  0  0  0  0  0  0  0  0  0
    0.0000    0.0000    0.0000 H   0  0  0  0  0  0  0  0  0  0  0  0
    0.0000    0.0000    0.0000 H   0  0  0  0  0  0  0  0  0  0  0  0
    0.0000    0.0000    0.0000 H   0  0  0  0  0  0  0  0  0  0  0  0
    0.0000    0.0000    0.0000 H   0  0  0  0  0  0  0  0  0  0  0  0
    0.0000    0.0000    0.0000 H   0  0  0  0  0  0  0  0  0  0  0  0
    0.0000    0.0000    0.0000 H   0  0  0  0  0  0  0  0  0  0  0  0
  1  8  1  0
  2  8  2  0
  3  9  2  0
  6  4  1  1
  5  9  1  0
  6  7  1  0
  6  8  1  0
  7  9  1  0
  1 10  1  0
  4 11  1  0
  4 12  1  0
  5 13  1  0
  5 14  1  0
  6 15  1  0
  7 16  1  0
  7 17  1  0
M  END
>  <ALOGPS_LOGP>  (1) 
-3.36

>  <ALOGPS_LOGS>  (1) 
0.10

>  <ALOGPS_SOLUBILITY>  (1) 
1.68e+02 g/l

>  <DATABASE_ID>  (1) 
DB00174

>  <DATABASE_NAME>  (1) 
drugbank

>  <DRUGBANK_ID>  (1) 
DB00174

>  <DRUG_GROUPS>  (1) 
approved; investigational; nutraceutical

>  <EXACT_MASS>  (1) 
132.053492132

>  <FORMULA>  (1) 
C4H8N2O3

>  <GENERIC_NAME>  (1) 
L-Asparagine

>  <INCHI_IDENTIFIER>  (1) 
InChI=1S/C4H8N2O3/c5-2(4(8)9)1-3(6)7/h2H,1,5H2,(H2,6,7)(H,8,9)/t2-/m0/s1

>  <INCHI_KEY>  (1) 
DCXYFEDJOCDNAF-REOHCLBHSA-N

>  <JCHEM_ACCEPTOR_COUNT>  (1) 
4

>  <JCHEM_AVERAGE_POLARIZABILITY>  (1) 
11.67708018795786

>  <JCHEM_BIOAVAILABILITY>  (1) 
1

>  <JCHEM_DONOR_COUNT>  (1) 
3

>  <JCHEM_FORMAL_CHARGE>  (1) 
0

>  <JCHEM_GHOSE_FILTER>  (1) 
0

>  <JCHEM_IUPAC>  (1) 
(2S)-2-amino-3-carbamoylpropanoic acid

>  <JCHEM_LOGP>  (1) 
-4.2878308444801645

>  <JCHEM_MDDR_LIKE_RULE>  (1) 
0

>  <JCHEM_NUMBER_OF_RINGS>  (1) 
0

>  <JCHEM_PHYSIOLOGICAL_CHARGE>  (1) 
0

>  <JCHEM_PKA>  (1) 
16.090480696758792

>  <JCHEM_PKA_STRONGEST_ACIDIC>  (1) 
1.99854250149491

>  <JCHEM_PKA_STRONGEST_BASIC>  (1) 
8.43348720502326

>  <JCHEM_POLAR_SURFACE_AREA>  (1) 
106.41

>  <JCHEM_REFRACTIVITY>  (1) 
28.354899999999997

>  <JCHEM_ROTATABLE_BOND_COUNT>  (1) 
3

>  <JCHEM_RULE_OF_FIVE>  (1) 
1

>  <JCHEM_TRADITIONAL_IUPAC>  (1) 
L-asparagine

>  <JCHEM_VEBER_RULE>  (1) 
0

>  <MOLECULAR_WEIGHT>  (1) 
132.1179

>  <SECONDARY_ACCESSION_NUMBERS>  (1) 
NUTR00015

>  <SMILES>  (1) 
N[C@@H](CC(N)=O)C(O)=O

>  <SYNONYMS>  (1) 
(2S)-2-amino-3-carbamoylpropanoic acid; (2S)-2,4-diamino-4-oxobutanoic acid; (S)-2-amino-3-carbamoylpropanoic acid; (S)-Asparagine; 2-Aminosuccinamic acid; alpha-aminosuccinamic acid; Asn; Asparagine; Aspartamic acid; L-2-aminosuccinamic acid; L-aspartic acid beta-amide; L-aspartic acid β-amide; α-aminosuccinamic acid

$$$$
