892
     RDKit          2D

 50 50  0  0  0  0  0  0  0  0999 V2000
    4.9509   -1.4438    0.0000 O   0  0  0  0  0  0  0  0  0  0  0  0
    3.5220    1.8563    0.0000 O   0  0  0  0  0  0  0  0  0  0  0  0
    5.6655   -0.2063    0.0000 O   0  0  0  0  0  0  0  0  0  0  0  0
    6.3799   -3.0938    0.0000 N   0  0  0  0  0  0  0  0  0  0  0  0
    2.0930    1.0313    0.0000 N   0  0  0  0  0  0  0  0  0  0  0  0
    5.6655   -2.6813    0.0000 C   0  0  0  0  0  0  0  0  0  0  0  0
    6.3799   -3.9188    0.0000 C   0  0  0  0  0  0  0  0  0  0  0  0
    7.0944   -2.6813    0.0000 C   0  0  0  0  0  0  0  0  0  0  0  0
    5.6655   -1.8563    0.0000 C   0  0  0  0  0  0  0  0  0  0  0  0
    7.0944   -4.3313    0.0000 C   0  0  0  0  0  0  0  0  0  0  0  0
    7.8089   -3.0938    0.0000 C   0  0  0  0  0  0  0  0  0  0  0  0
    4.2365    3.0938    0.0000 C   0  0  0  0  0  0  0  0  0  0  0  0
    4.2365    2.2688    0.0000 C   0  0  0  0  0  0  0  0  0  0  0  0
    4.9509    3.5063    0.0000 C   0  0  0  0  0  0  0  0  0  0  0  0
    3.5220    1.0313    0.0000 C   0  0  0  0  0  0  0  0  0  0  0  0
    4.2365   -0.2063    0.0000 C   0  0  0  0  0  0  0  0  0  0  0  0
    4.9509   -0.6188    0.0000 C   0  0  0  0  0  0  0  0  0  0  0  0
    4.2365    0.6188    0.0000 C   0  0  0  0  0  0  0  0  0  0  0  0
    2.8075    0.6188    0.0000 C   0  0  0  0  0  0  0  0  0  0  0  0
    4.9509    4.3313    0.0000 C   0  0  0  0  0  0  0  0  0  0  0  0
    3.5220   -0.6188    0.0000 C   0  0  0  0  0  0  0  0  0  0  0  0
    2.8075   -0.2063    0.0000 C   0  0  0  0  0  0  0  0  0  0  0  0
    0.0000    0.0000    0.0000 H   0  0  0  0  0  0  0  0  0  0  0  0
    0.0000    0.0000    0.0000 H   0  0  0  0  0  0  0  0  0  0  0  0
    0.0000    0.0000    0.0000 H   0  0  0  0  0  0  0  0  0  0  0  0
    0.0000    0.0000    0.0000 H   0  0  0  0  0  0  0  0  0  0  0  0
    0.0000    0.0000    0.0000 H   0  0  0  0  0  0  0  0  0  0  0  0
    0.0000    0.0000    0.0000 H   0  0  0  0  0  0  0  0  0  0  0  0
    0.0000    0.0000    0.0000 H   0  0  0  0  0  0  0  0  0  0  0  0
    0.0000    0.0000    0.0000 H   0  0  0  0  0  0  0  0  0  0  0  0
    0.0000    0.0000    0.0000 H   0  0  0  0  0  0  0  0  0  0  0  0
    0.0000    0.0000    0.0000 H   0  0  0  0  0  0  0  0  0  0  0  0
    0.0000    0.0000    0.0000 H   0  0  0  0  0  0  0  0  0  0  0  0
    0.0000    0.0000    0.0000 H   0  0  0  0  0  0  0  0  0  0  0  0
    0.0000    0.0000    0.0000 H   0  0  0  0  0  0  0  0  0  0  0  0
    0.0000    0.0000    0.0000 H   0  0  0  0  0  0  0  0  0  0  0  0
    0.0000    0.0000    0.0000 H   0  0  0  0  0  0  0  0  0  0  0  0
    0.0000    0.0000    0.0000 H   0  0  0  0  0  0  0  0  0  0  0  0
    0.0000    0.0000    0.0000 H   0  0  0  0  0  0  0  0  0  0  0  0
    0.0000    0.0000    0.0000 H   0  0  0  0  0  0  0  0  0  0  0  0
    0.0000    0.0000    0.0000 H   0  0  0  0  0  0  0  0  0  0  0  0
    0.0000    0.0000    0.0000 H   0  0  0  0  0  0  0  0  0  0  0  0
    0.0000    0.0000    0.0000 H   0  0  0  0  0  0  0  0  0  0  0  0
    0.0000    0.0000    0.0000 H   0  0  0  0  0  0  0  0  0  0  0  0
    0.0000    0.0000    0.0000 H   0  0  0  0  0  0  0  0  0  0  0  0
    0.0000    0.0000    0.0000 H   0  0  0  0  0  0  0  0  0  0  0  0
    0.0000    0.0000    0.0000 H   0  0  0  0  0  0  0  0  0  0  0  0
    0.0000    0.0000    0.0000 H   0  0  0  0  0  0  0  0  0  0  0  0
    0.0000    0.0000    0.0000 H   0  0  0  0  0  0  0  0  0  0  0  0
    0.0000    0.0000    0.0000 H   0  0  0  0  0  0  0  0  0  0  0  0
  1  9  1  0
  1 17  1  0
  2 13  1  0
  2 15  1  0
  3 17  2  0
  4  6  1  0
  4  7  1  0
  4  8  1  0
  5 19  1  0
  6  9  1  0
  7 10  1  0
  8 11  1  0
 12 13  1  0
 12 14  1  0
 14 20  1  0
 15 18  2  0
 15 19  1  0
 16 17  1  0
 16 18  1  0
 16 21  2  0
 19 22  2  0
 21 22  1  0
  5 23  1  0
  5 24  1  0
  6 25  1  0
  6 26  1  0
  7 27  1  0
  7 28  1  0
  8 29  1  0
  8 30  1  0
  9 31  1  0
  9 32  1  0
 10 33  1  0
 10 34  1  0
 10 35  1  0
 11 36  1  0
 11 37  1  0
 11 38  1  0
 12 39  1  0
 12 40  1  0
 13 41  1  0
 13 42  1  0
 14 43  1  0
 14 44  1  0
 18 45  1  0
 20 46  1  0
 20 47  1  0
 20 48  1  0
 21 49  1  0
 22 50  1  0
M  END
>  <ALOGPS_LOGP>  (1) 
3.30

>  <ALOGPS_LOGS>  (1) 
-2.75

>  <ALOGPS_SOLUBILITY>  (1) 
5.44e-01 g/l

>  <DATABASE_ID>  (1) 
DB00892

>  <DATABASE_NAME>  (1) 
drugbank

>  <DRUGBANK_ID>  (1) 
DB00892

>  <DRUG_GROUPS>  (1) 
approved

>  <EXACT_MASS>  (1) 
308.209992772

>  <FORMULA>  (1) 
C17H28N2O3

>  <GENERIC_NAME>  (1) 
Oxybuprocaine

>  <INCHI_IDENTIFIER>  (1) 
InChI=1S/C17H28N2O3/c1-4-7-11-21-16-13-14(8-9-15(16)18)17(20)22-12-10-19(5-2)6-3/h8-9,13H,4-7,10-12,18H2,1-3H3

>  <INCHI_KEY>  (1) 
CMHHMUWAYWTMGS-UHFFFAOYSA-N

>  <INTERNATIONAL_BRANDS>  (1) 
Benoxil; Cebesine; Conjuncain; Dorsacaine; Lacrimin; Novesin; Novesine; Prescaina

>  <JCHEM_ACCEPTOR_COUNT>  (1) 
4

>  <JCHEM_AVERAGE_POLARIZABILITY>  (1) 
35.831467268043

>  <JCHEM_BIOAVAILABILITY>  (1) 
1

>  <JCHEM_DONOR_COUNT>  (1) 
1

>  <JCHEM_FORMAL_CHARGE>  (1) 
0

>  <JCHEM_GHOSE_FILTER>  (1) 
1

>  <JCHEM_IUPAC>  (1) 
2-(diethylamino)ethyl 4-amino-3-butoxybenzoate

>  <JCHEM_LOGP>  (1) 
3.0462850066666673

>  <JCHEM_MDDR_LIKE_RULE>  (1) 
0

>  <JCHEM_NUMBER_OF_RINGS>  (1) 
1

>  <JCHEM_PHYSIOLOGICAL_CHARGE>  (1) 
1

>  <JCHEM_PKA_STRONGEST_ACIDIC>  (1) 
19.758059209886714

>  <JCHEM_PKA_STRONGEST_BASIC>  (1) 
8.961552187278182

>  <JCHEM_POLAR_SURFACE_AREA>  (1) 
64.79

>  <JCHEM_REFRACTIVITY>  (1) 
90.63680000000001

>  <JCHEM_ROTATABLE_BOND_COUNT>  (1) 
11

>  <JCHEM_RULE_OF_FIVE>  (1) 
1

>  <JCHEM_TRADITIONAL_IUPAC>  (1) 
oxybuprocaine

>  <JCHEM_VEBER_RULE>  (1) 
0

>  <MOLECULAR_WEIGHT>  (1) 
308.4158

>  <PRODUCTS>  (1) 
Altafluor; Fluorescein Sodium & Benoxinate Hydrochloride Ophthalmic Solution, USP; Fluorescein Sodium and Benoxinate Hydrochloride; Fluorox; Fluress; Fluress Liq Oph; Flurox; Minims Benoxinate Hydrochloride 0.4%

>  <SALTS>  (1) 
Benoxinate hydrochloride; Oxybuprocaine Hydrochloride

>  <SECONDARY_ACCESSION_NUMBERS>  (1) 
APRD00817

>  <SMILES>  (1) 
CCCCOC1=C(N)C=CC(=C1)C(=O)OCCN(CC)CC

>  <SYNONYMS>  (1) 
Benoxinate; BNX

$$$$
