
     RDKit          2D

 65 64  0  0  0  0  0  0  0  0999 V2000
    5.4537    0.3333    0.0000 C   0  0  0  0  0  0  0  0  0  0  0  0
    5.3253    1.1483    0.0000 C   0  0  0  0  0  0  0  0  0  0  0  0
    4.8121   -0.1852    0.0000 C   0  0  0  0  0  0  0  0  0  0  0  0
    4.5554    1.4447    0.0000 C   0  0  0  0  0  0  0  0  0  0  0  0
    4.0421    0.1111    0.0000 C   0  0  0  0  0  0  0  0  0  0  0  0
   -2.5022    0.3333    0.0000 C   0  0  0  0  0  0  0  0  0  0  0  0
   -3.1439   -0.1852    0.0000 C   0  0  0  0  0  0  0  0  0  0  0  0
   -1.0907    0.5556    0.0000 C   0  0  0  0  0  0  0  0  0  0  0  0
   -0.3208    0.2593    0.0000 C   0  0  0  0  0  0  0  0  0  0  0  0
   -1.6040   -0.7779    0.0000 C   0  0  0  0  0  0  0  0  0  0  0  0
   -4.5554   -0.4074    0.0000 C   0  0  0  0  0  0  0  0  0  0  0  0
   -4.0421    0.9260    0.0000 C   0  0  0  0  0  0  0  0  0  0  0  0
    0.1924    1.5928    0.0000 C   0  0  0  0  0  0  0  0  0  0  0  0
    3.1439    1.2224    0.0000 C   0  0  0  0  0  0  0  0  0  0  0  0
    1.7323    1.0001    0.0000 C   0  0  0  0  0  0  0  0  0  0  0  0
    3.9138    0.9260    0.0000 C   0  0  0  0  0  0  0  0  0  0  0  0
    1.0907    0.4815    0.0000 C   0  0  0  0  0  0  0  0  0  0  0  0
   -0.8340   -1.0742    0.0000 C   0  0  0  0  0  0  0  0  0  0  0  0
   -4.4271   -1.2224    0.0000 C   0  0  0  0  0  0  0  0  0  0  0  0
   -4.8121    1.2224    0.0000 C   0  0  0  0  0  0  0  0  0  0  0  0
   -0.5774    1.8892    0.0000 C   0  0  0  0  0  0  0  0  0  0  0  0
    1.2190   -0.3333    0.0000 C   0  0  0  0  0  0  0  0  0  0  0  0
   -1.7323    0.0370    0.0000 N   0  0  0  0  0  0  0  0  0  0  0  0
   -3.9138    0.1111    0.0000 N   0  0  0  0  0  0  0  0  0  0  0  0
    0.3208    0.7779    0.0000 N   0  0  0  0  0  0  0  0  0  0  0  0
   -0.1924   -0.5556    0.0000 O   0  0  0  0  0  0  0  0  0  0  0  0
   -0.7057   -1.8892    0.0000 O   0  0  0  0  0  0  0  0  0  0  0  0
   -3.6571   -1.5187    0.0000 O   0  0  0  0  0  0  0  0  0  0  0  0
   -5.0687   -1.7410    0.0000 O   0  0  0  0  0  0  0  0  0  0  0  0
   -5.4537    0.7038    0.0000 O   0  0  0  0  0  0  0  0  0  0  0  0
   -4.9404    2.0373    0.0000 O   0  0  0  0  0  0  0  0  0  0  0  0
   -1.2190    1.3706    0.0000 O   0  0  0  0  0  0  0  0  0  0  0  0
   -0.7057    2.7041    0.0000 O   0  0  0  0  0  0  0  0  0  0  0  0
    0.5774   -0.8520    0.0000 O   0  0  0  0  0  0  0  0  0  0  0  0
    1.9890   -0.6297    0.0000 O   0  0  0  0  0  0  0  0  0  0  0  0
    2.5022    0.7038    0.0000 O   0  0  0  0  0  0  0  0  0  0  0  0
   -0.5774   -2.7041    0.0000 Gd  0  0  0  0  0  0  0  0  0  0  0  0
    0.0000    0.0000    0.0000 H   0  0  0  0  0  0  0  0  0  0  0  0
    0.0000    0.0000    0.0000 H   0  0  0  0  0  0  0  0  0  0  0  0
    0.0000    0.0000    0.0000 H   0  0  0  0  0  0  0  0  0  0  0  0
    0.0000    0.0000    0.0000 H   0  0  0  0  0  0  0  0  0  0  0  0
    0.0000    0.0000    0.0000 H   0  0  0  0  0  0  0  0  0  0  0  0
    0.0000    0.0000    0.0000 H   0  0  0  0  0  0  0  0  0  0  0  0
    0.0000    0.0000    0.0000 H   0  0  0  0  0  0  0  0  0  0  0  0
    0.0000    0.0000    0.0000 H   0  0  0  0  0  0  0  0  0  0  0  0
    0.0000    0.0000    0.0000 H   0  0  0  0  0  0  0  0  0  0  0  0
    0.0000    0.0000    0.0000 H   0  0  0  0  0  0  0  0  0  0  0  0
    0.0000    0.0000    0.0000 H   0  0  0  0  0  0  0  0  0  0  0  0
    0.0000    0.0000    0.0000 H   0  0  0  0  0  0  0  0  0  0  0  0
    0.0000    0.0000    0.0000 H   0  0  0  0  0  0  0  0  0  0  0  0
    0.0000    0.0000    0.0000 H   0  0  0  0  0  0  0  0  0  0  0  0
    0.0000    0.0000    0.0000 H   0  0  0  0  0  0  0  0  0  0  0  0
    0.0000    0.0000    0.0000 H   0  0  0  0  0  0  0  0  0  0  0  0
    0.0000    0.0000    0.0000 H   0  0  0  0  0  0  0  0  0  0  0  0
    0.0000    0.0000    0.0000 H   0  0  0  0  0  0  0  0  0  0  0  0
    0.0000    0.0000    0.0000 H   0  0  0  0  0  0  0  0  0  0  0  0
    0.0000    0.0000    0.0000 H   0  0  0  0  0  0  0  0  0  0  0  0
    0.0000    0.0000    0.0000 H   0  0  0  0  0  0  0  0  0  0  0  0
    0.0000    0.0000    0.0000 H   0  0  0  0  0  0  0  0  0  0  0  0
    0.0000    0.0000    0.0000 H   0  0  0  0  0  0  0  0  0  0  0  0
    0.0000    0.0000    0.0000 H   0  0  0  0  0  0  0  0  0  0  0  0
    0.0000    0.0000    0.0000 H   0  0  0  0  0  0  0  0  0  0  0  0
    0.0000    0.0000    0.0000 H   0  0  0  0  0  0  0  0  0  0  0  0
    0.0000    0.0000    0.0000 H   0  0  0  0  0  0  0  0  0  0  0  0
    0.0000    0.0000    0.0000 H   0  0  0  0  0  0  0  0  0  0  0  0
  2  1  2  0
  3  1  1  0
  4  2  1  0
  5  3  2  0
  7  6  1  0
  9  8  1  0
 16  4  2  0
 16  5  1  0
 16 14  1  0
 17 15  1  0
 18 10  1  0
 19 11  1  0
 20 12  1  0
 21 13  1  0
 22 17  1  0
 23  6  1  0
 23  8  1  0
 23 10  1  0
 24  7  1  0
 24 11  1  0
 24 12  1  0
 25  9  1  0
 25 13  1  0
 25 17  1  0
 26 18  2  0
 27 18  1  0
 28 19  2  0
 29 19  1  0
 30 20  2  0
 31 20  1  0
 32 21  2  0
 33 21  1  0
 34 22  2  0
 35 22  1  0
 36 14  1  0
 36 15  1  0
  1 38  1  0
  2 39  1  0
  3 40  1  0
  4 41  1  0
  5 42  1  0
  6 43  1  0
  6 44  1  0
  7 45  1  0
  7 46  1  0
  8 47  1  0
  8 48  1  0
  9 49  1  0
  9 50  1  0
 10 51  1  0
 10 52  1  0
 11 53  1  0
 11 54  1  0
 12 55  1  0
 12 56  1  0
 13 57  1  0
 13 58  1  0
 14 59  1  0
 14 60  1  0
 15 61  1  0
 15 62  1  0
 17 63  1  0
 33 64  1  0
 35 65  1  0
M  CHG  4  27  -1  29  -1  31  -1  37   3
M  END
>  <ALOGPS_LOGP>  (1) 
0.92

>  <ALOGPS_LOGS>  (1) 
-3.00

>  <ALOGPS_SOLUBILITY>  (1) 
7.68e-01 g/l

>  <DATABASE_ID>  (1) 
DB00743

>  <DATABASE_NAME>  (1) 
drugbank

>  <DRUGBANK_ID>  (1) 
DB00743

>  <DRUG_GROUPS>  (1) 
approved

>  <EXACT_MASS>  (1) 
668.09649

>  <FORMULA>  (1) 
C22H28GdN3O11

>  <GENERIC_NAME>  (1) 
Gadobenic acid

>  <INCHI_IDENTIFIER>  (1) 
InChI=1S/C22H31N3O11.Gd/c26-18(27)10-23(6-7-24(11-19(28)29)12-20(30)31)8-9-25(13-21(32)33)17(22(34)35)15-36-14-16-4-2-1-3-5-16;/h1-5,17H,6-15H2,(H,26,27)(H,28,29)(H,30,31)(H,32,33)(H,34,35);/q;+3/p-3

>  <INCHI_KEY>  (1) 
MXZROTBGJUUXID-UHFFFAOYSA-K

>  <INTERNATIONAL_BRANDS>  (1) 
Multihance Multipack

>  <JCHEM_ACCEPTOR_COUNT>  (1) 
14

>  <JCHEM_ATOM_COUNT>  (1) 
65

>  <JCHEM_AVERAGE_POLARIZABILITY>  (1) 
48.317939791083695

>  <JCHEM_BIOAVAILABILITY>  (1) 
0

>  <JCHEM_DONOR_COUNT>  (1) 
2

>  <JCHEM_FORMAL_CHARGE>  (1) 
0

>  <JCHEM_GHOSE_FILTER>  (1) 
0

>  <JCHEM_IUPAC>  (1) 
gadolinium(3+) ion 4-carboxy-8,11-bis(carboxylatomethyl)-5-(carboxymethyl)-1-phenyl-2-oxa-5,8,11-triazatridecan-13-oate

>  <JCHEM_LOGP>  (1) 
-4.138386130497138

>  <JCHEM_MDDR_LIKE_RULE>  (1) 
0

>  <JCHEM_NUMBER_OF_RINGS>  (1) 
1

>  <JCHEM_PHYSIOLOGICAL_CHARGE>  (1) 
-3

>  <JCHEM_PKA>  (1) 
2.3948288079989286

>  <JCHEM_PKA_STRONGEST_ACIDIC>  (1) 
0.08544794494541819

>  <JCHEM_PKA_STRONGEST_BASIC>  (1) 
9.577350799529516

>  <JCHEM_POLAR_SURFACE_AREA>  (1) 
213.93999999999994

>  <JCHEM_REFRACTIVITY>  (1) 
154.36200000000002

>  <JCHEM_ROTATABLE_BOND_COUNT>  (1) 
20

>  <JCHEM_RULE_OF_FIVE>  (1) 
0

>  <JCHEM_TRADITIONAL_IUPAC>  (1) 
gadolinium(3+) ion 4-carboxy-8,11-bis(carboxylatomethyl)-5-(carboxymethyl)-1-phenyl-2-oxa-5,8,11-triazatridecan-13-oate

>  <JCHEM_VEBER_RULE>  (1) 
0

>  <MOLECULAR_WEIGHT>  (1) 
667.73

>  <PRODUCTS>  (1) 
MultiHance

>  <SALTS>  (1) 
Gadobenate dimeglumine

>  <SECONDARY_ACCESSION_NUMBERS>  (1) 
APRD00989

>  <SMILES>  (1) 
[Gd+3].OC(=O)CN(CCN(CCN(CC([O-])=O)CC([O-])=O)CC([O-])=O)C(COCC1=CC=CC=C1)C(O)=O

>  <SYNONYMS>  (1) 
Acide gadobenique; Acido gadobenico; Acidum gadobenicum ; Gadobenate; Gadobenic acid; Gadobens√§ure

$$$$
