457
     RDKit          2D

 49 52  0  0  0  0  0  0  0  0999 V2000
    3.6702    2.3966    0.0000 O   0  0  0  0  0  0  0  0  0  0  0  0
    2.8695    0.3387    0.0000 O   0  0  0  0  0  0  0  0  0  0  0  0
   10.1550    0.3540    0.0000 O   0  0  0  0  0  0  0  0  0  0  0  0
   10.1550   -1.3358    0.0000 O   0  0  0  0  0  0  0  0  0  0  0  0
    5.8137    0.3341    0.0000 N   0  0  0  0  0  0  0  0  0  0  0  0
    4.3847    1.1591    0.0000 N   0  0  0  0  0  0  0  0  0  0  0  0
    7.2426    0.3341    0.0000 N   0  0  0  0  0  0  0  0  0  0  0  0
    6.5281   -0.9034    0.0000 N   0  0  0  0  0  0  0  0  0  0  0  0
    7.2426   -2.1409    0.0000 N   0  0  0  0  0  0  0  0  0  0  0  0
    5.0992   -0.0784    0.0000 C   0  0  0  0  0  0  0  0  0  0  0  0
    5.8137    1.1591    0.0000 C   0  0  0  0  0  0  0  0  0  0  0  0
    4.3847    0.3341    0.0000 C   0  0  0  0  0  0  0  0  0  0  0  0
    5.0992    1.5716    0.0000 C   0  0  0  0  0  0  0  0  0  0  0  0
    6.5281   -0.0784    0.0000 C   0  0  0  0  0  0  0  0  0  0  0  0
    3.6702    1.5716    0.0000 C   0  0  0  0  0  0  0  0  0  0  0  0
    7.9571   -0.0784    0.0000 C   0  0  0  0  0  0  0  0  0  0  0  0
    2.9558    1.1591    0.0000 C   0  0  0  0  0  0  0  0  0  0  0  0
    7.9571   -0.9034    0.0000 C   0  0  0  0  0  0  0  0  0  0  0  0
    7.2426   -1.3159    0.0000 C   0  0  0  0  0  0  0  0  0  0  0  0
    8.6946    0.3628    0.0000 C   0  0  0  0  0  0  0  0  0  0  0  0
    8.6946   -1.3445    0.0000 C   0  0  0  0  0  0  0  0  0  0  0  0
    2.2020    1.4947    0.0000 C   0  0  0  0  0  0  0  0  0  0  0  0
    9.4421   -0.0612    0.0000 C   0  0  0  0  0  0  0  0  0  0  0  0
    9.4421   -0.9205    0.0000 C   0  0  0  0  0  0  0  0  0  0  0  0
    1.6500    0.8816    0.0000 C   0  0  0  0  0  0  0  0  0  0  0  0
    2.0625    0.1671    0.0000 C   0  0  0  0  0  0  0  0  0  0  0  0
   10.1518    1.1790    0.0000 C   0  0  0  0  0  0  0  0  0  0  0  0
   10.8711   -0.9261    0.0000 C   0  0  0  0  0  0  0  0  0  0  0  0
    0.0000    0.0000    0.0000 H   0  0  0  0  0  0  0  0  0  0  0  0
    0.0000    0.0000    0.0000 H   0  0  0  0  0  0  0  0  0  0  0  0
    0.0000    0.0000    0.0000 H   0  0  0  0  0  0  0  0  0  0  0  0
    0.0000    0.0000    0.0000 H   0  0  0  0  0  0  0  0  0  0  0  0
    0.0000    0.0000    0.0000 H   0  0  0  0  0  0  0  0  0  0  0  0
    0.0000    0.0000    0.0000 H   0  0  0  0  0  0  0  0  0  0  0  0
    0.0000    0.0000    0.0000 H   0  0  0  0  0  0  0  0  0  0  0  0
    0.0000    0.0000    0.0000 H   0  0  0  0  0  0  0  0  0  0  0  0
    0.0000    0.0000    0.0000 H   0  0  0  0  0  0  0  0  0  0  0  0
    0.0000    0.0000    0.0000 H   0  0  0  0  0  0  0  0  0  0  0  0
    0.0000    0.0000    0.0000 H   0  0  0  0  0  0  0  0  0  0  0  0
    0.0000    0.0000    0.0000 H   0  0  0  0  0  0  0  0  0  0  0  0
    0.0000    0.0000    0.0000 H   0  0  0  0  0  0  0  0  0  0  0  0
    0.0000    0.0000    0.0000 H   0  0  0  0  0  0  0  0  0  0  0  0
    0.0000    0.0000    0.0000 H   0  0  0  0  0  0  0  0  0  0  0  0
    0.0000    0.0000    0.0000 H   0  0  0  0  0  0  0  0  0  0  0  0
    0.0000    0.0000    0.0000 H   0  0  0  0  0  0  0  0  0  0  0  0
    0.0000    0.0000    0.0000 H   0  0  0  0  0  0  0  0  0  0  0  0
    0.0000    0.0000    0.0000 H   0  0  0  0  0  0  0  0  0  0  0  0
    0.0000    0.0000    0.0000 H   0  0  0  0  0  0  0  0  0  0  0  0
    0.0000    0.0000    0.0000 H   0  0  0  0  0  0  0  0  0  0  0  0
  1 15  2  0
  2 17  1  0
  2 26  1  0
  3 23  1  0
  3 27  1  0
  4 24  1  0
  4 28  1  0
  5 10  1  0
  5 11  1  0
  5 14  1  0
  6 12  1  0
  6 13  1  0
  6 15  1  0
  7 14  2  0
  7 16  1  0
  8 14  1  0
  8 19  2  0
  9 19  1  0
 10 12  1  0
 11 13  1  0
 15 17  1  0
 16 18  2  0
 16 20  1  0
 17 22  2  0
 18 19  1  0
 18 21  1  0
 20 23  2  0
 21 24  2  0
 22 25  1  0
 23 24  1  0
 25 26  2  0
  9 29  1  0
  9 30  1  0
 10 31  1  0
 10 32  1  0
 11 33  1  0
 11 34  1  0
 12 35  1  0
 12 36  1  0
 13 37  1  0
 13 38  1  0
 20 39  1  0
 21 40  1  0
 22 41  1  0
 25 42  1  0
 26 43  1  0
 27 44  1  0
 27 45  1  0
 27 46  1  0
 28 47  1  0
 28 48  1  0
 28 49  1  0
M  END
>  <ALOGPS_LOGP>  (1) 
1.93

>  <ALOGPS_LOGS>  (1) 
-2.74

>  <ALOGPS_SOLUBILITY>  (1) 
6.93e-01 g/l

>  <DATABASE_ID>  (1) 
DB00457

>  <DATABASE_NAME>  (1) 
drugbank

>  <DRUGBANK_ID>  (1) 
DB00457

>  <DRUG_GROUPS>  (1) 
approved

>  <EXACT_MASS>  (1) 
383.159354185

>  <FORMULA>  (1) 
C19H21N5O4

>  <GENERIC_NAME>  (1) 
Prazosin

>  <INCHI_IDENTIFIER>  (1) 
InChI=1S/C19H21N5O4/c1-26-15-10-12-13(11-16(15)27-2)21-19(22-17(12)20)24-7-5-23(6-8-24)18(25)14-4-3-9-28-14/h3-4,9-11H,5-8H2,1-2H3,(H2,20,21,22)

>  <INCHI_KEY>  (1) 
IENZQIKPVFGBNW-UHFFFAOYSA-N

>  <INTERNATIONAL_BRANDS>  (1) 
Hypovase; Minipress Xl; Pressin; Vasoflex

>  <JCHEM_ACCEPTOR_COUNT>  (1) 
7

>  <JCHEM_AVERAGE_POLARIZABILITY>  (1) 
40.488823493372315

>  <JCHEM_BIOAVAILABILITY>  (1) 
1

>  <JCHEM_DONOR_COUNT>  (1) 
1

>  <JCHEM_FORMAL_CHARGE>  (1) 
0

>  <JCHEM_GHOSE_FILTER>  (1) 
1

>  <JCHEM_IUPAC>  (1) 
2-[4-(furan-2-carbonyl)piperazin-1-yl]-6,7-dimethoxyquinazolin-4-amine

>  <JCHEM_LOGP>  (1) 
1.6505164626666664

>  <JCHEM_MDDR_LIKE_RULE>  (1) 
0

>  <JCHEM_NUMBER_OF_RINGS>  (1) 
4

>  <JCHEM_PHYSIOLOGICAL_CHARGE>  (1) 
1

>  <JCHEM_PKA_STRONGEST_BASIC>  (1) 
7.2429429338165505

>  <JCHEM_POLAR_SURFACE_AREA>  (1) 
106.95

>  <JCHEM_REFRACTIVITY>  (1) 
104.4981

>  <JCHEM_ROTATABLE_BOND_COUNT>  (1) 
4

>  <JCHEM_RULE_OF_FIVE>  (1) 
1

>  <JCHEM_TRADITIONAL_IUPAC>  (1) 
prazosin

>  <JCHEM_VEBER_RULE>  (1) 
0

>  <MOLECULAR_WEIGHT>  (1) 
383.4011

>  <PRODUCTS>  (1) 
Alti-prazosin-tab 1mg; Alti-prazosin-tab 2mg; Alti-prazosin-tab 5mg; Apo-prazo Tab 1mg; Apo-prazo Tab 2mg; Apo-prazo Tab 5mg; Minipress; Nu-prazo Tab 1mg; Nu-prazo Tab 2mg; Nu-prazo Tab 5mg; Prazosin; Prazosin Hydrochloride; Prazosin-1 Tab 1mg; Prazosin-2 Tab 2mg; Prazosin-5 Tab; Rho-prazosin - Tab 1mg; Rho-prazosin - Tab 5mg; Rho-prazosin-tab 2mg; Teva-prazosin

>  <SALTS>  (1) 
Prazosin Hydrochloride

>  <SECONDARY_ACCESSION_NUMBERS>  (1) 
APRD00020

>  <SMILES>  (1) 
COC1=C(OC)C=C2C(N)=NC(=NC2=C1)N1CCN(CC1)C(=O)C1=CC=CO1

>  <SYNONYMS>  (1) 
Prazosina; Prazosine; Prazosinum

$$$$
