276
     RDKit          2D

 47 50  0  0  0  0  0  0  0  0999 V2000
    6.7073    2.0768    0.0000 S   0  0  0  0  0  0  0  0  0  0  0  0
    3.8495    1.2518    0.0000 O   0  0  0  0  0  0  0  0  0  0  0  0
    5.8823    2.0768    0.0000 O   0  0  0  0  0  0  0  0  0  0  0  0
    7.5323    2.0768    0.0000 O   0  0  0  0  0  0  0  0  0  0  0  0
    3.8495   -0.3982    0.0000 N   0  0  0  0  0  0  0  0  0  0  0  0
    3.8495   -2.8732    0.0000 N   0  0  0  0  0  0  0  0  0  0  0  0
    6.7073    1.2518    0.0000 N   0  0  0  0  0  0  0  0  0  0  0  0
    3.8495   -1.2232    0.0000 C   0  0  0  0  0  0  0  0  0  0  0  0
    3.1350   -1.6357    0.0000 C   0  0  0  0  0  0  0  0  0  0  0  0
    4.5640   -1.6357    0.0000 C   0  0  0  0  0  0  0  0  0  0  0  0
    3.1350   -2.4607    0.0000 C   0  0  0  0  0  0  0  0  0  0  0  0
    4.5640   -2.4607    0.0000 C   0  0  0  0  0  0  0  0  0  0  0  0
    4.5640    0.0143    0.0000 C   0  0  0  0  0  0  0  0  0  0  0  0
    2.3975   -1.1946    0.0000 C   0  0  0  0  0  0  0  0  0  0  0  0
    5.3015   -1.1946    0.0000 C   0  0  0  0  0  0  0  0  0  0  0  0
    4.5640    0.8393    0.0000 C   0  0  0  0  0  0  0  0  0  0  0  0
    5.9929    0.8393    0.0000 C   0  0  0  0  0  0  0  0  0  0  0  0
    5.2784   -0.3982    0.0000 C   0  0  0  0  0  0  0  0  0  0  0  0
    2.3975   -2.9018    0.0000 C   0  0  0  0  0  0  0  0  0  0  0  0
    5.3015   -2.9018    0.0000 C   0  0  0  0  0  0  0  0  0  0  0  0
    5.2784    1.2518    0.0000 C   0  0  0  0  0  0  0  0  0  0  0  0
    5.9929    0.0143    0.0000 C   0  0  0  0  0  0  0  0  0  0  0  0
    1.6500   -1.6186    0.0000 C   0  0  0  0  0  0  0  0  0  0  0  0
    6.0490   -1.6186    0.0000 C   0  0  0  0  0  0  0  0  0  0  0  0
    1.6500   -2.4779    0.0000 C   0  0  0  0  0  0  0  0  0  0  0  0
    6.0490   -2.4779    0.0000 C   0  0  0  0  0  0  0  0  0  0  0  0
    6.7073    2.9018    0.0000 C   0  0  0  0  0  0  0  0  0  0  0  0
    3.8495    2.0768    0.0000 C   0  0  0  0  0  0  0  0  0  0  0  0
    0.0000    0.0000    0.0000 H   0  0  0  0  0  0  0  0  0  0  0  0
    0.0000    0.0000    0.0000 H   0  0  0  0  0  0  0  0  0  0  0  0
    0.0000    0.0000    0.0000 H   0  0  0  0  0  0  0  0  0  0  0  0
    0.0000    0.0000    0.0000 H   0  0  0  0  0  0  0  0  0  0  0  0
    0.0000    0.0000    0.0000 H   0  0  0  0  0  0  0  0  0  0  0  0
    0.0000    0.0000    0.0000 H   0  0  0  0  0  0  0  0  0  0  0  0
    0.0000    0.0000    0.0000 H   0  0  0  0  0  0  0  0  0  0  0  0
    0.0000    0.0000    0.0000 H   0  0  0  0  0  0  0  0  0  0  0  0
    0.0000    0.0000    0.0000 H   0  0  0  0  0  0  0  0  0  0  0  0
    0.0000    0.0000    0.0000 H   0  0  0  0  0  0  0  0  0  0  0  0
    0.0000    0.0000    0.0000 H   0  0  0  0  0  0  0  0  0  0  0  0
    0.0000    0.0000    0.0000 H   0  0  0  0  0  0  0  0  0  0  0  0
    0.0000    0.0000    0.0000 H   0  0  0  0  0  0  0  0  0  0  0  0
    0.0000    0.0000    0.0000 H   0  0  0  0  0  0  0  0  0  0  0  0
    0.0000    0.0000    0.0000 H   0  0  0  0  0  0  0  0  0  0  0  0
    0.0000    0.0000    0.0000 H   0  0  0  0  0  0  0  0  0  0  0  0
    0.0000    0.0000    0.0000 H   0  0  0  0  0  0  0  0  0  0  0  0
    0.0000    0.0000    0.0000 H   0  0  0  0  0  0  0  0  0  0  0  0
    0.0000    0.0000    0.0000 H   0  0  0  0  0  0  0  0  0  0  0  0
  1  3  2  0
  1  4  2  0
  1  7  1  0
  1 27  1  0
  2 16  1  0
  2 28  1  0
  5  8  1  0
  5 13  1  0
  6 11  2  0
  6 12  1  0
  7 17  1  0
  8  9  2  0
  8 10  1  0
  9 11  1  0
  9 14  1  0
 10 12  2  0
 10 15  1  0
 11 19  1  0
 12 20  1  0
 13 16  2  0
 13 18  1  0
 14 23  2  0
 15 24  2  0
 16 21  1  0
 17 21  2  0
 17 22  1  0
 18 22  2  0
 19 25  2  0
 20 26  2  0
 23 25  1  0
 24 26  1  0
  5 29  1  0
  7 30  1  0
 14 31  1  0
 15 32  1  0
 18 33  1  0
 19 34  1  0
 20 35  1  0
 21 36  1  0
 22 37  1  0
 23 38  1  0
 24 39  1  0
 25 40  1  0
 26 41  1  0
 27 42  1  0
 27 43  1  0
 27 44  1  0
 28 45  1  0
 28 46  1  0
 28 47  1  0
M  END
>  <ALOGPS_LOGP>  (1) 
4.66

>  <ALOGPS_LOGS>  (1) 
-5.09

>  <ALOGPS_SOLUBILITY>  (1) 
3.17e-03 g/l

>  <DATABASE_ID>  (1) 
DB00276

>  <DATABASE_NAME>  (1) 
drugbank

>  <DRUGBANK_ID>  (1) 
DB00276

>  <DRUG_GROUPS>  (1) 
approved

>  <EXACT_MASS>  (1) 
393.114712179

>  <FORMULA>  (1) 
C21H19N3O3S

>  <GENERIC_NAME>  (1) 
Amsacrine

>  <INCHI_IDENTIFIER>  (1) 
InChI=1S/C21H19N3O3S/c1-27-20-13-14(24-28(2,25)26)11-12-19(20)23-21-15-7-3-5-9-17(15)22-18-10-6-4-8-16(18)21/h3-13,24H,1-2H3,(H,22,23)

>  <INCHI_KEY>  (1) 
XCPGHVQEEXUHNC-UHFFFAOYSA-N

>  <INTERNATIONAL_BRANDS>  (1) 
Amekrin; AMSA P-D; Amsidine; Amsidyl

>  <JCHEM_ACCEPTOR_COUNT>  (1) 
5

>  <JCHEM_AVERAGE_POLARIZABILITY>  (1) 
41.64806164743931

>  <JCHEM_BIOAVAILABILITY>  (1) 
1

>  <JCHEM_DONOR_COUNT>  (1) 
2

>  <JCHEM_FORMAL_CHARGE>  (1) 
0

>  <JCHEM_GHOSE_FILTER>  (1) 
1

>  <JCHEM_IUPAC>  (1) 
N-{4-[(acridin-9-yl)amino]-3-methoxyphenyl}methanesulfonamide

>  <JCHEM_LOGP>  (1) 
3.161621245666667

>  <JCHEM_MDDR_LIKE_RULE>  (1) 
0

>  <JCHEM_NUMBER_OF_RINGS>  (1) 
4

>  <JCHEM_PHYSIOLOGICAL_CHARGE>  (1) 
1

>  <JCHEM_PKA>  (1) 
17.477329386510522

>  <JCHEM_PKA_STRONGEST_ACIDIC>  (1) 
10.824812748358678

>  <JCHEM_PKA_STRONGEST_BASIC>  (1) 
8.444943738330952

>  <JCHEM_POLAR_SURFACE_AREA>  (1) 
80.32000000000001

>  <JCHEM_REFRACTIVITY>  (1) 
107.69010000000003

>  <JCHEM_ROTATABLE_BOND_COUNT>  (1) 
4

>  <JCHEM_RULE_OF_FIVE>  (1) 
1

>  <JCHEM_TRADITIONAL_IUPAC>  (1) 
amsacrine

>  <JCHEM_VEBER_RULE>  (1) 
0

>  <MOLECULAR_WEIGHT>  (1) 
393.459

>  <PRODUCTS>  (1) 
Amsa Pd Inj 50mg/ml

>  <SALTS>  (1) 
Amsacrine gluconate; Amsacrine hydrochloride; Amsacrine mesylate

>  <SECONDARY_ACCESSION_NUMBERS>  (1) 
APRD00064

>  <SMILES>  (1) 
COC1=C(NC2=C3C=CC=CC3=NC3=CC=CC=C23)C=CC(NS(C)(=O)=O)=C1

>  <SYNONYMS>  (1) 
4'-(9-Acridinylamino)-3'-methoxymethanesulfonanilide; Acridinyl anisidide; m-AMSA; mAMSA

$$$$
