
     RDKit          2D

 46 47  0  0  0  0  0  0  0  0999 V2000
    6.1043   -8.1935    0.0000 C   0  0  0  0  0  0  0  0  0  0  0  0
    5.4015   -7.7866    0.0000 N   0  0  0  0  0  0  0  0  0  0  0  0
    6.8260   -7.7866    0.0000 C   0  0  0  0  0  0  0  0  0  0  0  0
    7.5289   -8.1750    0.0000 C   0  0  0  0  0  0  0  0  0  0  0  0
    7.5289   -9.0075    0.0000 C   0  0  0  0  0  0  0  0  0  0  0  0
    6.8074   -9.4145    0.0000 C   0  0  0  0  0  0  0  0  0  0  0  0
    6.1043   -9.0075    0.0000 C   0  0  0  0  0  0  0  0  0  0  0  0
    6.8260   -6.9541    0.0000 C   0  0  0  0  0  0  0  0  0  0  0  0
    4.6984   -8.1935    0.0000 C   0  0  0  0  0  0  0  0  0  0  0  0
    4.6984   -9.0075    0.0000 O   0  0  0  0  0  0  0  0  0  0  0  0
    5.4015   -9.4330    0.0000 C   0  0  0  0  0  0  0  0  0  0  0  0
    3.9954   -7.7866    0.0000 C   0  0  0  0  0  0  0  0  0  0  0  0
    3.2740   -8.1750    0.0000 N   0  0  0  0  0  0  0  0  0  0  0  0
    2.5710   -7.7866    0.0000 C   0  0  0  0  0  0  0  0  0  0  0  0
    2.5710   -6.9541    0.0000 C   0  0  0  0  0  0  0  0  0  0  0  0
    3.2740   -6.5470    0.0000 C   0  0  0  0  0  0  0  0  0  0  0  0
    3.9954   -6.9541    0.0000 C   0  0  0  0  0  0  0  0  0  0  0  0
    3.2740   -9.0075    0.0000 C   0  0  0  0  0  0  0  0  0  0  0  0
    3.9769   -9.4145    0.0000 C   0  0  0  0  0  0  0  0  0  0  0  0
    3.9769  -10.2470    0.0000 C   0  0  0  0  0  0  0  0  0  0  0  0
    0.0000    0.0000    0.0000 H   0  0  0  0  0  0  0  0  0  0  0  0
    0.0000    0.0000    0.0000 H   0  0  0  0  0  0  0  0  0  0  0  0
    0.0000    0.0000    0.0000 H   0  0  0  0  0  0  0  0  0  0  0  0
    0.0000    0.0000    0.0000 H   0  0  0  0  0  0  0  0  0  0  0  0
    0.0000    0.0000    0.0000 H   0  0  0  0  0  0  0  0  0  0  0  0
    0.0000    0.0000    0.0000 H   0  0  0  0  0  0  0  0  0  0  0  0
    0.0000    0.0000    0.0000 H   0  0  0  0  0  0  0  0  0  0  0  0
    0.0000    0.0000    0.0000 H   0  0  0  0  0  0  0  0  0  0  0  0
    0.0000    0.0000    0.0000 H   0  0  0  0  0  0  0  0  0  0  0  0
    0.0000    0.0000    0.0000 H   0  0  0  0  0  0  0  0  0  0  0  0
    0.0000    0.0000    0.0000 H   0  0  0  0  0  0  0  0  0  0  0  0
    0.0000    0.0000    0.0000 H   0  0  0  0  0  0  0  0  0  0  0  0
    0.0000    0.0000    0.0000 H   0  0  0  0  0  0  0  0  0  0  0  0
    0.0000    0.0000    0.0000 H   0  0  0  0  0  0  0  0  0  0  0  0
    0.0000    0.0000    0.0000 H   0  0  0  0  0  0  0  0  0  0  0  0
    0.0000    0.0000    0.0000 H   0  0  0  0  0  0  0  0  0  0  0  0
    0.0000    0.0000    0.0000 H   0  0  0  0  0  0  0  0  0  0  0  0
    0.0000    0.0000    0.0000 H   0  0  0  0  0  0  0  0  0  0  0  0
    0.0000    0.0000    0.0000 H   0  0  0  0  0  0  0  0  0  0  0  0
    0.0000    0.0000    0.0000 H   0  0  0  0  0  0  0  0  0  0  0  0
    0.0000    0.0000    0.0000 H   0  0  0  0  0  0  0  0  0  0  0  0
    0.0000    0.0000    0.0000 H   0  0  0  0  0  0  0  0  0  0  0  0
    0.0000    0.0000    0.0000 H   0  0  0  0  0  0  0  0  0  0  0  0
    0.0000    0.0000    0.0000 H   0  0  0  0  0  0  0  0  0  0  0  0
    0.0000    0.0000    0.0000 H   0  0  0  0  0  0  0  0  0  0  0  0
    0.0000    0.0000    0.0000 H   0  0  0  0  0  0  0  0  0  0  0  0
  3  1  2  0
  2  1  1  0
  7  1  1  0
  9  2  1  0
  4  3  1  0
  8  3  1  0
  5  4  2  0
  6  5  1  0
  7  6  2  0
 11  7  1  0
 10  9  2  0
 12  9  1  6
 13 12  1  0
 17 12  1  0
 14 13  1  0
 18 13  1  0
 15 14  1  0
 16 15  1  0
 17 16  1  0
 19 18  1  0
 20 19  1  0
  2 21  1  0
  4 22  1  0
  5 23  1  0
  6 24  1  0
  8 25  1  0
  8 26  1  0
  8 27  1  0
 11 28  1  0
 11 29  1  0
 11 30  1  0
 12 31  1  0
 14 32  1  0
 14 33  1  0
 15 34  1  0
 15 35  1  0
 16 36  1  0
 16 37  1  0
 17 38  1  0
 17 39  1  0
 18 40  1  0
 18 41  1  0
 19 42  1  0
 19 43  1  0
 20 44  1  0
 20 45  1  0
 20 46  1  0
M  END
>  <ALOGPS_LOGP>  (1) 
2.91

>  <ALOGPS_LOGS>  (1) 
-3.04

>  <ALOGPS_SOLUBILITY>  (1) 
2.53e-01 g/l

>  <DATABASE_ID>  (1) 
DB00296

>  <DATABASE_NAME>  (1) 
drugbank

>  <DRUGBANK_ID>  (1) 
DB00296

>  <DRUG_GROUPS>  (1) 
approved

>  <EXACT_MASS>  (1) 
274.204513464

>  <FORMULA>  (1) 
C17H26N2O

>  <GENERIC_NAME>  (1) 
Ropivacaine

>  <INCHI_IDENTIFIER>  (1) 
InChI=1S/C17H26N2O/c1-4-11-19-12-6-5-10-15(19)17(20)18-16-13(2)8-7-9-14(16)3/h7-9,15H,4-6,10-12H2,1-3H3,(H,18,20)/t15-/m0/s1

>  <INCHI_KEY>  (1) 
ZKMNUMMKYBVTFN-HNNXBMFYSA-N

>  <JCHEM_ACCEPTOR_COUNT>  (1) 
2

>  <JCHEM_AVERAGE_POLARIZABILITY>  (1) 
32.665408838794555

>  <JCHEM_BIOAVAILABILITY>  (1) 
1

>  <JCHEM_DONOR_COUNT>  (1) 
1

>  <JCHEM_FORMAL_CHARGE>  (1) 
0

>  <JCHEM_GHOSE_FILTER>  (1) 
1

>  <JCHEM_IUPAC>  (1) 
(2S)-N-(2,6-dimethylphenyl)-1-propylpiperidine-2-carboxamide

>  <JCHEM_LOGP>  (1) 
4.070950219333334

>  <JCHEM_MDDR_LIKE_RULE>  (1) 
0

>  <JCHEM_NUMBER_OF_RINGS>  (1) 
2

>  <JCHEM_PHYSIOLOGICAL_CHARGE>  (1) 
1

>  <JCHEM_PKA_STRONGEST_ACIDIC>  (1) 
13.623525622831593

>  <JCHEM_PKA_STRONGEST_BASIC>  (1) 
7.818046257329233

>  <JCHEM_POLAR_SURFACE_AREA>  (1) 
32.34

>  <JCHEM_REFRACTIVITY>  (1) 
85.5923

>  <JCHEM_ROTATABLE_BOND_COUNT>  (1) 
4

>  <JCHEM_RULE_OF_FIVE>  (1) 
1

>  <JCHEM_TRADITIONAL_IUPAC>  (1) 
ropivacaine

>  <JCHEM_VEBER_RULE>  (1) 
1

>  <MOLECULAR_WEIGHT>  (1) 
274.4011

>  <PRODUCTS>  (1) 
Naropin; Naropin Inj 7.5mg/ml; Ropivacaine Hydrochloride; Ropivacaine Hydrochloride Injection; Ropivacaine Hydrochloride Injection USP; Ropivacaine Hydrochloride Injection, USP

>  <SALTS>  (1) 
Ropivacaine hydrochloride; Ropivacaine hydrochloride monohydrate

>  <SECONDARY_ACCESSION_NUMBERS>  (1) 
APRD00492

>  <SMILES>  (1) 
CCCN1CCCC[C@H]1C(=O)NC1=C(C)C=CC=C1C

>  <SYNONYMS>  (1) 
(S)-(âˆ’)-1-propyl-2',6'-pipecoloxylidide; (S)-ropivacaine; L-N-n-propylpipecolic acid-2,6-xylidide; Ropivacaina; Ropivacaine; Ropivacainum

$$$$
