257
     RDKit          2D

 42 45  0  0  0  0  0  0  0  0999 V2000
    2.6961   -1.4598    0.0000 Cl  0  0  0  0  0  0  0  0  0  0  0  0
    4.1251    1.0153    0.0000 N   0  0  0  0  0  0  0  0  0  0  0  0
    4.5376    2.2848    0.0000 N   0  0  0  0  0  0  0  0  0  0  0  0
    4.1251    0.1902    0.0000 C   0  0  0  0  0  0  0  0  0  0  0  0
    4.1251   -0.6348    0.0000 C   0  0  0  0  0  0  0  0  0  0  0  0
    3.3001    0.1902    0.0000 C   0  0  0  0  0  0  0  0  0  0  0  0
    4.9501    0.1902    0.0000 C   0  0  0  0  0  0  0  0  0  0  0  0
    3.4106   -1.0473    0.0000 C   0  0  0  0  0  0  0  0  0  0  0  0
    4.8396   -1.0473    0.0000 C   0  0  0  0  0  0  0  0  0  0  0  0
    2.8876    0.9047    0.0000 C   0  0  0  0  0  0  0  0  0  0  0  0
    5.3626    0.9047    0.0000 C   0  0  0  0  0  0  0  0  0  0  0  0
    2.8876   -0.5242    0.0000 C   0  0  0  0  0  0  0  0  0  0  0  0
    5.3626   -0.5242    0.0000 C   0  0  0  0  0  0  0  0  0  0  0  0
    3.4577    1.5002    0.0000 C   0  0  0  0  0  0  0  0  0  0  0  0
    4.7925    1.5002    0.0000 C   0  0  0  0  0  0  0  0  0  0  0  0
    3.7126    2.2848    0.0000 C   0  0  0  0  0  0  0  0  0  0  0  0
    3.4106   -1.8723    0.0000 C   0  0  0  0  0  0  0  0  0  0  0  0
    4.8396   -1.8723    0.0000 C   0  0  0  0  0  0  0  0  0  0  0  0
    2.0625    0.9047    0.0000 C   0  0  0  0  0  0  0  0  0  0  0  0
    6.1876    0.9047    0.0000 C   0  0  0  0  0  0  0  0  0  0  0  0
    2.0625   -0.5242    0.0000 C   0  0  0  0  0  0  0  0  0  0  0  0
    6.1876   -0.5242    0.0000 C   0  0  0  0  0  0  0  0  0  0  0  0
    4.1251   -2.2848    0.0000 C   0  0  0  0  0  0  0  0  0  0  0  0
    1.6500    0.1902    0.0000 C   0  0  0  0  0  0  0  0  0  0  0  0
    6.6001    0.1902    0.0000 C   0  0  0  0  0  0  0  0  0  0  0  0
    0.0000    0.0000    0.0000 H   0  0  0  0  0  0  0  0  0  0  0  0
    0.0000    0.0000    0.0000 H   0  0  0  0  0  0  0  0  0  0  0  0
    0.0000    0.0000    0.0000 H   0  0  0  0  0  0  0  0  0  0  0  0
    0.0000    0.0000    0.0000 H   0  0  0  0  0  0  0  0  0  0  0  0
    0.0000    0.0000    0.0000 H   0  0  0  0  0  0  0  0  0  0  0  0
    0.0000    0.0000    0.0000 H   0  0  0  0  0  0  0  0  0  0  0  0
    0.0000    0.0000    0.0000 H   0  0  0  0  0  0  0  0  0  0  0  0
    0.0000    0.0000    0.0000 H   0  0  0  0  0  0  0  0  0  0  0  0
    0.0000    0.0000    0.0000 H   0  0  0  0  0  0  0  0  0  0  0  0
    0.0000    0.0000    0.0000 H   0  0  0  0  0  0  0  0  0  0  0  0
    0.0000    0.0000    0.0000 H   0  0  0  0  0  0  0  0  0  0  0  0
    0.0000    0.0000    0.0000 H   0  0  0  0  0  0  0  0  0  0  0  0
    0.0000    0.0000    0.0000 H   0  0  0  0  0  0  0  0  0  0  0  0
    0.0000    0.0000    0.0000 H   0  0  0  0  0  0  0  0  0  0  0  0
    0.0000    0.0000    0.0000 H   0  0  0  0  0  0  0  0  0  0  0  0
    0.0000    0.0000    0.0000 H   0  0  0  0  0  0  0  0  0  0  0  0
    0.0000    0.0000    0.0000 H   0  0  0  0  0  0  0  0  0  0  0  0
  1  8  1  0
  2  4  1  0
  2 14  1  0
  2 15  1  0
  3 15  2  0
  3 16  1  0
  4  5  1  0
  4  6  1  0
  4  7  1  0
  5  8  2  0
  5  9  1  0
  6 10  2  0
  6 12  1  0
  7 11  2  0
  7 13  1  0
  8 17  1  0
  9 18  2  0
 10 19  1  0
 11 20  1  0
 12 21  2  0
 13 22  2  0
 14 16  2  0
 17 23  2  0
 18 23  1  0
 19 24  2  0
 20 25  2  0
 21 24  1  0
 22 25  1  0
  9 26  1  0
 10 27  1  0
 11 28  1  0
 12 29  1  0
 13 30  1  0
 14 31  1  0
 15 32  1  0
 16 33  1  0
 17 34  1  0
 18 35  1  0
 19 36  1  0
 20 37  1  0
 21 38  1  0
 22 39  1  0
 23 40  1  0
 24 41  1  0
 25 42  1  0
M  END
>  <ALOGPS_LOGP>  (1) 
5.48

>  <ALOGPS_LOGS>  (1) 
-5.37

>  <ALOGPS_SOLUBILITY>  (1) 
1.47e-03 g/l

>  <DATABASE_ID>  (1) 
DB00257

>  <DATABASE_NAME>  (1) 
drugbank

>  <DRUGBANK_ID>  (1) 
DB00257

>  <DRUG_GROUPS>  (1) 
approved; vet_approved

>  <EXACT_MASS>  (1) 
344.108026261

>  <FORMULA>  (1) 
C22H17ClN2

>  <GENERIC_NAME>  (1) 
Clotrimazole

>  <INCHI_IDENTIFIER>  (1) 
InChI=1S/C22H17ClN2/c23-21-14-8-7-13-20(21)22(25-16-15-24-17-25,18-9-3-1-4-10-18)19-11-5-2-6-12-19/h1-17H

>  <INCHI_KEY>  (1) 
VNFPBHJOKIVQEB-UHFFFAOYSA-N

>  <INTERNATIONAL_BRANDS>  (1) 
Canesten; Canifug; Clotrimaderm; Empecid; FemCare; Fungicip; Gyne-Lotrimin; Mycelex; Myclo-Derm; Myclo-Gyne

>  <JCHEM_ACCEPTOR_COUNT>  (1) 
1

>  <JCHEM_AVERAGE_POLARIZABILITY>  (1) 
36.248842985286885

>  <JCHEM_BIOAVAILABILITY>  (1) 
1

>  <JCHEM_DONOR_COUNT>  (1) 
0

>  <JCHEM_FORMAL_CHARGE>  (1) 
0

>  <JCHEM_GHOSE_FILTER>  (1) 
0

>  <JCHEM_IUPAC>  (1) 
1-[(2-chlorophenyl)diphenylmethyl]-1H-imidazole

>  <JCHEM_LOGP>  (1) 
5.8394516706666675

>  <JCHEM_MDDR_LIKE_RULE>  (1) 
0

>  <JCHEM_NUMBER_OF_RINGS>  (1) 
4

>  <JCHEM_PHYSIOLOGICAL_CHARGE>  (1) 
0

>  <JCHEM_PKA_STRONGEST_BASIC>  (1) 
6.62392164146992

>  <JCHEM_POLAR_SURFACE_AREA>  (1) 
17.82

>  <JCHEM_REFRACTIVITY>  (1) 
103.76450000000004

>  <JCHEM_ROTATABLE_BOND_COUNT>  (1) 
4

>  <JCHEM_RULE_OF_FIVE>  (1) 
0

>  <JCHEM_TRADITIONAL_IUPAC>  (1) 
clotrimazole

>  <JCHEM_VEBER_RULE>  (1) 
1

>  <MOLECULAR_WEIGHT>  (1) 
344.837

>  <PRODUCTS>  (1) 
Alevazol; Anti Fungal; Anti-Fungal; Antifungal; Antifungal Foot; Aptrimazole 1.0% Antifungal Cream; Aspiera Anti-Fungal; Athlete Foot Cream with Clotrimazole; Athlete s Foot Afac; Athletes Foot; Athletes Foot Antifungal Antifungal; Atopalm Clotrimazole Antifungal; Au Kah Chuen Antifungal; Best Choice Clotrimazole; Betamethasone Clotrimazole; Blossom Pharmaceuticals Antifungal; Budpak Antifungal Clotrimazole; CAREALL Clotrimazole; CVS Clotrimazole Maximum Strength; CVS Pharmacy Clotrimazole 3; CVS Pharmacy ITCH RELIEF ANTIFUNGAL; CVSHealth Antifungal; Canesoral Combi-pak; Canesten 1 Vaginal Tablet Combi-pak; Canesten 1% Topical Cream; Canesten 1% Topical Solution; Canesten 100mg Vaginal Inserts; Canesten 2% Vaginal Cream; Canesten 200 Mg Vaginal Inserts; Canesten 3 Vaginal Tablet Combi-pak; Canesten Combi-pak 1 Day Therapy; Canesten Combi-pak Comfortab 1; Canesten Combi-pak Comfortab 3; Canesten Combi-pak Cream 1; Canesten Comfortab 1; Canesten Comfortab 3; Canesten Cream 1; Canesten Cream 3; Canesten Cream 6; Canesten Crm 1% Top; Canesten Crm 1% Vag; Canesten External Cream; Canesten External Cream Refill; Canesten Liq 1%; Canesten V; Canesten Vaginal Inserts 100mg; Careone Clotrimazole; Clotrimaderm Cream 1%; Clotrimaderm External Cream; Clotrimaderm Topical Solution 1% USP; Clotrimaderm Vag Cream 1%; Clotrimaderm Vag Cream 2%; Clotrimaderm-fluconazole Combi-pack; ClotrimazOil Antifungal; Clotrimazole; Clotrimazole 1% Athletes Foot; Clotrimazole Antifungal; Clotrimazole Athletes Foot; Clotrimazole Cream USP 1%; Clotrimazole External Cream; Clotrimazole External Cream Refill; Clotrimazole Jock Itch; Clotrimazole Vaginal Cream USP 1%; Clotrimazole Vaginal Cream USP 2%; Clotrimazole and Betamethasone Dipropionate; Clotrimazole-fluconazole Combi-pack; Cvs Antifungal Ringworm; DermacinRx Therazole Pak; Dermatin Antifungal; Dr Sheffield Athletes Foot; Dynarex Antifungal; Equaline Clotrimazole Antifungal; Equate Jock Itch; Exchange Select Atheletes foot; Family Care Clotrimazole Antifungal; Family Wellness Antifungal; Fastrin Anti - Fungal Skin Care; Femmesil; First Aid Research Antifungal .5oz; First Aid Research Antifungal Cream 1oz; Foot Care Clotrimazole; Footlogix; Footlogix Intensive Care Diabetic Formula; Forticept Antifungal Cooling; Fortinia; FungaZoil Advanced; Fungicure Intensive; Fungicure Liquid Gel; Fungicure Manicure Pedicure; Fungicure Manicure Pedicure Liquid Gel; Fungicure Pumpspray; Fungistat Max; Gehwol Fusskraft Nail and Skin Protection; Gehwol Nail Protection Pen; Gehwol med Foot; Gerlasan Hand; Good Neighbor Pharmacy Clotrimazole; Good Neighbor Pharmacy Clotrimazole 3; Good Sense Athletes Foot antifungal; Gyne-Lotrimin 3; Gyne-Lotrimin 7; Healthy Accents Antifungal; Heb Antifungal; Hua Tuo Xian Gao; JiDeSheng; Jock Itch; Jock Itch Antifungal; Jock Itch Cream with Clotrimazole; Kerasal foot and toe; Kleer-Plex Fungistat Athlete Foot Cure; Kleer-Plex Fungistat Fungus Cure; Kroger ATHLETES FOOT; Kroger Jock Itch; Lakesia; Leader Clotrimazole Anti-Fungal; Live Better Antifungal; Lotriderm Cream; Lotrimin; Lotrimin Antifungal; Lotrisone; Lucky SuperSoft Athletes Foot; Major Clotrimazole; MakeSense; Meijer Athletes Foot; Meijer Clotrimazole 3; Meijer Clotrimazole Antifungal; Myclo Crm 10mg; Myclo Crm 50mg; Myclo Solution; Myclo Tab 100mg; Myclo-derm Cream 1%; Myclo-derm Solution 1%; Myclo-gyne Cream 1%; Myclo-gyne Inserts; Neo-zol Cream 1%; Neo-zol Vaginal Cream 1%; Neo-zol Vaginal Cream 2%; Occulus SKIN HYDRATING TOPICAL FOAM CLO-1 ANTIFUNGAL FOAM; Occulus Skin Hydrating Topical Foam CLO-1; Olp Clotrimazole; Our Family Athletes Foot; PMS-clotrimazole-betamethasone; Pedesil; Pedesil Maximum Strength; Pro-EX Anti Fungal; Protective Nail and skin; Protective and Moisturizing Skin; Publix athletic foot; Quality Choice Clotrimazole; Rexall Athletes Foot; Rexall Jock Itch; Rite Aid antifungal ringworm; Scheinpharm Clotrimazole 1%; Shield and Protect Anti-Fungal; ShopRite antifungal; Shopko Athletes Foot; Signature Care Antifungal; Signature Care Athletes Foot; Smart Sense Athletes Foot Antifungal; Smooth Gator Fungus Eliminator; SoundBody Clotrimazole Antifungal; Sunmark Antifungal; Sunmark Clotrimazole 3; Terrasil Anti-Fungal Treatment MAX; Terrasil Anti-fungal Treatment; Terrasil Foot and Nail Anti-Fungal; Terrasil Foot and Nail Anti-Fungal Maximum Strength; Terrasil Jock-Itch Treatment MAX; Terrasil Rapid-Clear Anti-Fungal; Terrasil Ringworm Treatment MAX; Terrasil Tinea Treatment MAX; TheraPlus Plus; TopCare Antifungal; TopCare Clotrimazole 3; Up and Up Athletes Foot; Up and Up Jock Itch Relief; UpandUp Clotrimazole; Walgreens Clotrimazole; Walgreens Clotrimazole 3; Walgreens Clotrimazole Antifungal; Walgreens Jock Itch; Western Family Athletes Foot; WinCo Antifungal; Zapotol Clotrimazole

>  <SECONDARY_ACCESSION_NUMBERS>  (1) 
APRD00244

>  <SMILES>  (1) 
ClC1=CC=CC=C1C(N1C=CN=C1)(C1=CC=CC=C1)C1=CC=CC=C1

>  <SYNONYMS>  (1) 
1-((2-Chlorophenyl)diphenylmethyl)-1H-imidazole; 1-(o-Chloro-α,α-diphenylbenzyl)imidazole; 1-(o-Chlorotrityl)imidazole; 1-(α-(2-Chlorophenyl)benzhydryl)imidazole

$$$$
