206
     RDKit          2D

 84 89  0  0  1  0  0  0  0  0999 V2000
    9.0369   -1.7075    0.0000 O   0  0  0  0  0  0  0  0  0  0  0  0
   10.1915   -0.4251    0.0000 O   0  0  0  0  0  0  0  0  0  0  0  0
    7.5976   -2.1233    0.0000 O   0  0  0  0  0  0  0  0  0  0  0  0
    6.5468   -1.1549    0.0000 O   0  0  0  0  0  0  0  0  0  0  0  0
   10.4832    0.9737    0.0000 O   0  0  0  0  0  0  0  0  0  0  0  0
    2.2049    1.5700    0.0000 O   0  0  0  0  0  0  0  0  0  0  0  0
   12.8723   -1.7140    0.0000 O   0  0  0  0  0  0  0  0  0  0  0  0
   13.4557    1.0837    0.0000 O   0  0  0  0  0  0  0  0  0  0  0  0
   13.9716   -0.4836    0.0000 O   0  0  0  0  0  0  0  0  0  0  0  0
    7.1074    1.7459    0.0000 N   0  0  0  0  0  0  0  0  0  0  0  0
    5.0836    0.8240    0.0000 N   0  0  0  0  0  0  0  0  0  0  0  0
    7.6474    0.1264    0.0000 C   0  0  0  0  0  0  0  0  0  0  0  0
    8.2224    0.7650    0.0000 C   0  0  0  0  0  0  0  0  0  0  0  0
    6.8083    0.3115    0.0000 C   0  0  0  0  0  0  0  0  0  0  0  0
    7.9109   -0.7290    0.0000 C   0  0  0  0  0  0  0  0  0  0  0  0
    6.5553    1.1328    0.0000 C   0  0  0  0  0  0  0  0  0  0  0  0
    7.9505    1.5802    0.0000 C   0  0  0  0  0  0  0  0  0  0  0  0
    9.1007    0.5924    0.0000 C   0  0  0  0  0  0  0  0  0  0  0  0
    8.7849   -0.9219    0.0000 C   0  0  0  0  0  0  0  0  0  0  0  0
    9.3839   -0.2567    0.0000 C   0  0  0  0  0  0  0  0  0  0  0  0
    5.7484    1.3043    0.0000 C   0  0  0  0  0  0  0  0  0  0  0  0
    6.8524    2.5305    0.0000 C   0  0  0  0  0  0  0  0  0  0  0  0
    5.4935    2.0889    0.0000 C   0  0  0  0  0  0  0  0  0  0  0  0
    6.0455    2.7020    0.0000 C   0  0  0  0  0  0  0  0  0  0  0  0
    7.3518   -1.3357    0.0000 C   0  0  0  0  0  0  0  0  0  0  0  0
    4.6734    2.0868    0.0000 C   0  0  0  0  0  0  0  0  0  0  0  0
    4.4206    1.3066    0.0000 C   0  0  0  0  0  0  0  0  0  0  0  0
    9.8431   -1.8821    0.0000 C   0  0  0  0  0  0  0  0  0  0  0  0
    4.1111    2.7299    0.0000 C   0  0  0  0  0  0  0  0  0  0  0  0
   10.7411    0.1901    0.0000 C   0  0  0  0  0  0  0  0  0  0  0  0
    3.5880    1.1155    0.0000 C   0  0  0  0  0  0  0  0  0  0  0  0
    3.2743    2.5580    0.0000 C   0  0  0  0  0  0  0  0  0  0  0  0
    3.0110    1.7453    0.0000 C   0  0  0  0  0  0  0  0  0  0  0  0
    7.0385   -2.7299    0.0000 C   0  0  0  0  0  0  0  0  0  0  0  0
   11.5488    0.0217    0.0000 C   0  0  0  0  0  0  0  0  0  0  0  0
   12.0984    0.6369    0.0000 C   0  0  0  0  0  0  0  0  0  0  0  0
   11.8067   -0.7620    0.0000 C   0  0  0  0  0  0  0  0  0  0  0  0
   12.6143   -0.9303    0.0000 C   0  0  0  0  0  0  0  0  0  0  0  0
   12.9060    0.4684    0.0000 C   0  0  0  0  0  0  0  0  0  0  0  0
    1.6500    2.1805    0.0000 C   0  0  0  0  0  0  0  0  0  0  0  0
   13.1639   -0.3151    0.0000 C   0  0  0  0  0  0  0  0  0  0  0  0
   12.3226   -2.3292    0.0000 C   0  0  0  0  0  0  0  0  0  0  0  0
   13.1977    1.8673    0.0000 C   0  0  0  0  0  0  0  0  0  0  0  0
   14.5212    0.1317    0.0000 C   0  0  0  0  0  0  0  0  0  0  0  0
    0.0000    0.0000    0.0000 H   0  0  0  0  0  0  0  0  0  0  0  0
    0.0000    0.0000    0.0000 H   0  0  0  0  0  0  0  0  0  0  0  0
    0.0000    0.0000    0.0000 H   0  0  0  0  0  0  0  0  0  0  0  0
    0.0000    0.0000    0.0000 H   0  0  0  0  0  0  0  0  0  0  0  0
    0.0000    0.0000    0.0000 H   0  0  0  0  0  0  0  0  0  0  0  0
    0.0000    0.0000    0.0000 H   0  0  0  0  0  0  0  0  0  0  0  0
    0.0000    0.0000    0.0000 H   0  0  0  0  0  0  0  0  0  0  0  0
    0.0000    0.0000    0.0000 H   0  0  0  0  0  0  0  0  0  0  0  0
    0.0000    0.0000    0.0000 H   0  0  0  0  0  0  0  0  0  0  0  0
    0.0000    0.0000    0.0000 H   0  0  0  0  0  0  0  0  0  0  0  0
    0.0000    0.0000    0.0000 H   0  0  0  0  0  0  0  0  0  0  0  0
    0.0000    0.0000    0.0000 H   0  0  0  0  0  0  0  0  0  0  0  0
    0.0000    0.0000    0.0000 H   0  0  0  0  0  0  0  0  0  0  0  0
    0.0000    0.0000    0.0000 H   0  0  0  0  0  0  0  0  0  0  0  0
    0.0000    0.0000    0.0000 H   0  0  0  0  0  0  0  0  0  0  0  0
    0.0000    0.0000    0.0000 H   0  0  0  0  0  0  0  0  0  0  0  0
    0.0000    0.0000    0.0000 H   0  0  0  0  0  0  0  0  0  0  0  0
    0.0000    0.0000    0.0000 H   0  0  0  0  0  0  0  0  0  0  0  0
    0.0000    0.0000    0.0000 H   0  0  0  0  0  0  0  0  0  0  0  0
    0.0000    0.0000    0.0000 H   0  0  0  0  0  0  0  0  0  0  0  0
    0.0000    0.0000    0.0000 H   0  0  0  0  0  0  0  0  0  0  0  0
    0.0000    0.0000    0.0000 H   0  0  0  0  0  0  0  0  0  0  0  0
    0.0000    0.0000    0.0000 H   0  0  0  0  0  0  0  0  0  0  0  0
    0.0000    0.0000    0.0000 H   0  0  0  0  0  0  0  0  0  0  0  0
    0.0000    0.0000    0.0000 H   0  0  0  0  0  0  0  0  0  0  0  0
    0.0000    0.0000    0.0000 H   0  0  0  0  0  0  0  0  0  0  0  0
    0.0000    0.0000    0.0000 H   0  0  0  0  0  0  0  0  0  0  0  0
    0.0000    0.0000    0.0000 H   0  0  0  0  0  0  0  0  0  0  0  0
    0.0000    0.0000    0.0000 H   0  0  0  0  0  0  0  0  0  0  0  0
    0.0000    0.0000    0.0000 H   0  0  0  0  0  0  0  0  0  0  0  0
    0.0000    0.0000    0.0000 H   0  0  0  0  0  0  0  0  0  0  0  0
    0.0000    0.0000    0.0000 H   0  0  0  0  0  0  0  0  0  0  0  0
    0.0000    0.0000    0.0000 H   0  0  0  0  0  0  0  0  0  0  0  0
    0.0000    0.0000    0.0000 H   0  0  0  0  0  0  0  0  0  0  0  0
    0.0000    0.0000    0.0000 H   0  0  0  0  0  0  0  0  0  0  0  0
    0.0000    0.0000    0.0000 H   0  0  0  0  0  0  0  0  0  0  0  0
    0.0000    0.0000    0.0000 H   0  0  0  0  0  0  0  0  0  0  0  0
    0.0000    0.0000    0.0000 H   0  0  0  0  0  0  0  0  0  0  0  0
    0.0000    0.0000    0.0000 H   0  0  0  0  0  0  0  0  0  0  0  0
    0.0000    0.0000    0.0000 H   0  0  0  0  0  0  0  0  0  0  0  0
 19  1  1  6
  1 28  1  0
 20  2  1  6
  2 30  1  0
  3 25  1  0
  3 34  1  0
  4 25  2  0
  5 30  2  0
  6 33  1  0
  6 40  1  0
  7 38  1  0
  7 42  1  0
  8 39  1  0
  8 43  1  0
  9 41  1  0
  9 44  1  0
 10 16  1  0
 10 17  1  0
 10 22  1  0
 11 21  1  0
 11 27  1  0
 12 13  1  0
 12 14  1  0
 12 15  1  0
 13 17  1  0
 13 18  1  0
 14 16  1  0
 15 19  1  0
 15 25  1  1
 16 21  1  0
 18 20  1  0
 19 20  1  0
 21 23  2  0
 22 24  1  0
 23 24  1  0
 23 26  1  0
 26 27  2  0
 26 29  1  0
 27 31  1  0
 29 32  2  0
 30 35  1  0
 31 33  2  0
 32 33  1  0
 35 36  2  0
 35 37  1  0
 36 39  1  0
 37 38  2  0
 38 41  1  0
 39 41  2  0
 11 45  1  0
 12 46  1  6
 13 47  1  6
 14 48  1  0
 14 49  1  0
 15 50  1  0
 16 51  1  1
 17 52  1  0
 17 53  1  0
 18 54  1  0
 18 55  1  0
 19 56  1  0
 20 57  1  0
 22 58  1  0
 22 59  1  0
 24 60  1  0
 24 61  1  0
 28 62  1  0
 28 63  1  0
 28 64  1  0
 29 65  1  0
 31 66  1  0
 32 67  1  0
 34 68  1  0
 34 69  1  0
 34 70  1  0
 36 71  1  0
 37 72  1  0
 40 73  1  0
 40 74  1  0
 40 75  1  0
 42 76  1  0
 42 77  1  0
 42 78  1  0
 43 79  1  0
 43 80  1  0
 43 81  1  0
 44 82  1  0
 44 83  1  0
 44 84  1  0
M  END
>  <ALOGPS_LOGP>  (1) 
4.05

>  <ALOGPS_LOGS>  (1) 
-4.73

>  <ALOGPS_SOLUBILITY>  (1) 
1.13e-02 g/l

>  <DATABASE_ID>  (1) 
DB00206

>  <DATABASE_NAME>  (1) 
drugbank

>  <DRUGBANK_ID>  (1) 
DB00206

>  <DRUG_GROUPS>  (1) 
approved; investigational

>  <EXACT_MASS>  (1) 
608.273380888

>  <FORMULA>  (1) 
C33H40N2O9

>  <GENERIC_NAME>  (1) 
Reserpine

>  <INCHI_IDENTIFIER>  (1) 
InChI=1S/C33H40N2O9/c1-38-19-7-8-20-21-9-10-35-16-18-13-27(44-32(36)17-11-25(39-2)30(41-4)26(12-17)40-3)31(42-5)28(33(37)43-6)22(18)15-24(35)29(21)34-23(20)14-19/h7-8,11-12,14,18,22,24,27-28,31,34H,9-10,13,15-16H2,1-6H3/t18-,22+,24-,27-,28+,31+/m1/s1

>  <INCHI_KEY>  (1) 
QEVHRUUCFGRFIF-MDEJGZGSSA-N

>  <INTERNATIONAL_BRANDS>  (1) 
Apoplon; Hiserpia; Novoreserpine; Reserfia; Serpalan; Serpanray; Serpasil

>  <JCHEM_ACCEPTOR_COUNT>  (1) 
8

>  <JCHEM_AVERAGE_POLARIZABILITY>  (1) 
66.05009821117685

>  <JCHEM_BIOAVAILABILITY>  (1) 
1

>  <JCHEM_DONOR_COUNT>  (1) 
1

>  <JCHEM_FORMAL_CHARGE>  (1) 
0

>  <JCHEM_GHOSE_FILTER>  (1) 
0

>  <JCHEM_IUPAC>  (1) 
methyl (1R,15S,17R,18R,19S,20S)-6,18-dimethoxy-17-(3,4,5-trimethoxybenzoyloxy)-3,13-diazapentacyclo[11.8.0.0²,¹⁰.0⁴,⁹.0¹⁵,²⁰]henicosa-2(10),4(9),5,7-tetraene-19-carboxylate

>  <JCHEM_LOGP>  (1) 
3.531495942666668

>  <JCHEM_MDDR_LIKE_RULE>  (1) 
1

>  <JCHEM_NUMBER_OF_RINGS>  (1) 
6

>  <JCHEM_PHYSIOLOGICAL_CHARGE>  (1) 
1

>  <JCHEM_PKA_STRONGEST_ACIDIC>  (1) 
16.29011270669428

>  <JCHEM_PKA_STRONGEST_BASIC>  (1) 
7.559517906091002

>  <JCHEM_POLAR_SURFACE_AREA>  (1) 
117.78

>  <JCHEM_REFRACTIVITY>  (1) 
161.41849999999997

>  <JCHEM_ROTATABLE_BOND_COUNT>  (1) 
10

>  <JCHEM_RULE_OF_FIVE>  (1) 
0

>  <JCHEM_TRADITIONAL_IUPAC>  (1) 
reserpine

>  <JCHEM_VEBER_RULE>  (1) 
0

>  <MOLECULAR_WEIGHT>  (1) 
608.6787

>  <PRODUCTS>  (1) 
Hydropres 25 Tab; Hydropres 50 Tab; Novo-reserpine Tab 0.25mg; Reserpine; Ser-AP-ES Tab; Serpasil 0.25mg

>  <SECONDARY_ACCESSION_NUMBERS>  (1) 
APRD00472

>  <SMILES>  (1) 
[H][C@]12C[C@@H](OC(=O)C3=CC(OC)=C(OC)C(OC)=C3)[C@H](OC)[C@@H](C(=O)OC)[C@@]1([H])C[C@@]1([H])N(CCC3=C1NC1=C3C=CC(OC)=C1)C2

>  <SYNONYMS>  (1) 
(−)-reserpine; 3,4,5-trimethoxybenzoyl methyl reserpate

$$$$
