
     RDKit          2D

 62 64  0  0  0  0  0  0  0  0999 V2000
    2.9836   -1.8063    0.0000 C   0  0  0  0  0  0  0  0  0  0  0  0
    3.7068   -2.2034    0.0000 C   0  0  0  0  0  0  0  0  0  0  0  0
    4.4123   -1.7757    0.0000 C   0  0  0  0  0  0  0  0  0  0  0  0
    4.3947   -0.9509    0.0000 C   0  0  0  0  0  0  0  0  0  0  0  0
    3.6715   -0.5538    0.0000 C   0  0  0  0  0  0  0  0  0  0  0  0
    2.9660   -0.9815    0.0000 C   0  0  0  0  0  0  0  0  0  0  0  0
    2.2429   -0.5844    0.0000 C   0  0  0  0  0  0  0  0  0  0  0  0
    1.5373   -1.0121    0.0000 C   0  0  0  0  0  0  0  0  0  0  0  0
    1.5550   -1.8369    0.0000 C   0  0  0  0  0  0  0  0  0  0  0  0
    2.2782   -2.2340    0.0000 C   0  0  0  0  0  0  0  0  0  0  0  0
    0.7760   -2.1085    0.0000 C   0  0  0  0  0  0  0  0  0  0  0  0
    0.7474   -0.7740    0.0000 C   0  0  0  0  0  0  0  0  0  0  0  0
    0.2769   -1.4516    0.0000 C   0  0  0  0  0  0  0  0  0  0  0  0
    3.6538    0.2710    0.0000 O   0  0  0  0  0  0  0  0  0  0  0  0
    4.3593    0.6987    0.0000 C   0  0  0  0  0  0  0  0  0  0  0  0
    5.0824    0.3016    0.0000 C   0  0  0  0  0  0  0  0  0  0  0  0
    0.7936   -2.9333    0.0000 C   0  0  0  0  0  0  0  0  0  0  0  0
    0.0882   -3.3610    0.0000 C   0  0  0  0  0  0  0  0  0  0  0  0
   -0.6350   -2.9639    0.0000 C   0  0  0  0  0  0  0  0  0  0  0  0
   -1.3405   -3.3916    0.0000 C   0  0  0  0  0  0  0  0  0  0  0  0
   -2.0636   -2.9944    0.0000 C   0  0  0  0  0  0  0  0  0  0  0  0
   -2.7691   -3.4221    0.0000 C   0  0  0  0  0  0  0  0  0  0  0  0
   -3.4922   -3.0250    0.0000 C   0  0  0  0  0  0  0  0  0  0  0  0
   -4.1977   -3.4527    0.0000 C   0  0  0  0  0  0  0  0  0  0  0  0
    5.7879    0.7293    0.0000 O   0  0  0  0  0  0  0  0  0  0  0  0
    5.1001   -0.5232    0.0000 O   0  0  0  0  0  0  0  0  0  0  0  0
   -0.5479   -1.4692    0.0000 O   0  0  0  0  0  0  0  0  0  0  0  0
   -0.6526   -2.1391    0.0000 O   0  0  0  0  0  0  0  0  0  0  0  0
    0.0000    0.0000    0.0000 H   0  0  0  0  0  0  0  0  0  0  0  0
    0.0000    0.0000    0.0000 H   0  0  0  0  0  0  0  0  0  0  0  0
    0.0000    0.0000    0.0000 H   0  0  0  0  0  0  0  0  0  0  0  0
    0.0000    0.0000    0.0000 H   0  0  0  0  0  0  0  0  0  0  0  0
    0.0000    0.0000    0.0000 H   0  0  0  0  0  0  0  0  0  0  0  0
    0.0000    0.0000    0.0000 H   0  0  0  0  0  0  0  0  0  0  0  0
    0.0000    0.0000    0.0000 H   0  0  0  0  0  0  0  0  0  0  0  0
    0.0000    0.0000    0.0000 H   0  0  0  0  0  0  0  0  0  0  0  0
    0.0000    0.0000    0.0000 H   0  0  0  0  0  0  0  0  0  0  0  0
    0.0000    0.0000    0.0000 H   0  0  0  0  0  0  0  0  0  0  0  0
    0.0000    0.0000    0.0000 H   0  0  0  0  0  0  0  0  0  0  0  0
    0.0000    0.0000    0.0000 H   0  0  0  0  0  0  0  0  0  0  0  0
    0.0000    0.0000    0.0000 H   0  0  0  0  0  0  0  0  0  0  0  0
    0.0000    0.0000    0.0000 H   0  0  0  0  0  0  0  0  0  0  0  0
    0.0000    0.0000    0.0000 H   0  0  0  0  0  0  0  0  0  0  0  0
    0.0000    0.0000    0.0000 H   0  0  0  0  0  0  0  0  0  0  0  0
    0.0000    0.0000    0.0000 H   0  0  0  0  0  0  0  0  0  0  0  0
    0.0000    0.0000    0.0000 H   0  0  0  0  0  0  0  0  0  0  0  0
    0.0000    0.0000    0.0000 H   0  0  0  0  0  0  0  0  0  0  0  0
    0.0000    0.0000    0.0000 H   0  0  0  0  0  0  0  0  0  0  0  0
    0.0000    0.0000    0.0000 H   0  0  0  0  0  0  0  0  0  0  0  0
    0.0000    0.0000    0.0000 H   0  0  0  0  0  0  0  0  0  0  0  0
    0.0000    0.0000    0.0000 H   0  0  0  0  0  0  0  0  0  0  0  0
    0.0000    0.0000    0.0000 H   0  0  0  0  0  0  0  0  0  0  0  0
    0.0000    0.0000    0.0000 H   0  0  0  0  0  0  0  0  0  0  0  0
    0.0000    0.0000    0.0000 H   0  0  0  0  0  0  0  0  0  0  0  0
    0.0000    0.0000    0.0000 H   0  0  0  0  0  0  0  0  0  0  0  0
    0.0000    0.0000    0.0000 H   0  0  0  0  0  0  0  0  0  0  0  0
    0.0000    0.0000    0.0000 H   0  0  0  0  0  0  0  0  0  0  0  0
    0.0000    0.0000    0.0000 H   0  0  0  0  0  0  0  0  0  0  0  0
    0.0000    0.0000    0.0000 H   0  0  0  0  0  0  0  0  0  0  0  0
    0.0000    0.0000    0.0000 H   0  0  0  0  0  0  0  0  0  0  0  0
    0.0000    0.0000    0.0000 H   0  0  0  0  0  0  0  0  0  0  0  0
    0.0000    0.0000    0.0000 H   0  0  0  0  0  0  0  0  0  0  0  0
  1  2  2  0
  1  6  1  0
  1 10  1  0
  2  3  1  0
  3  4  2  0
  4  5  1  0
  5  6  2  0
  6  7  1  0
  7  8  1  0
  9 10  1  0
  8 12  1  0
  9  8  1  0
 11  9  1  0
 11 13  1  0
 12 13  1  0
  5 14  1  0
 14 15  1  0
 15 16  1  0
 11 17  1  6
 17 18  1  0
 19 18  1  6
 19 20  1  0
 20 21  1  0
 21 22  1  0
 22 23  1  0
 23 24  1  0
 16 25  1  0
 16 26  2  0
 13 27  1  6
 19 28  1  0
  2 29  1  0
  3 30  1  0
  4 31  1  0
  7 32  1  0
  7 33  1  0
  8 34  1  1
  9 35  1  1
 10 36  1  0
 10 37  1  0
 11 38  1  0
 12 39  1  0
 12 40  1  0
 13 41  1  0
 15 42  1  0
 15 43  1  0
 17 44  1  0
 17 45  1  0
 18 46  1  0
 18 47  1  0
 19 48  1  0
 20 49  1  0
 20 50  1  0
 21 51  1  0
 21 52  1  0
 22 53  1  0
 22 54  1  0
 23 55  1  0
 23 56  1  0
 24 57  1  0
 24 58  1  0
 24 59  1  0
 25 60  1  0
 27 61  1  0
 28 62  1  0
M  END
>  <ALOGPS_LOGP>  (1) 
3.53

>  <ALOGPS_LOGS>  (1) 
-4.73

>  <ALOGPS_SOLUBILITY>  (1) 
7.31e-03 g/l

>  <DATABASE_ID>  (1) 
DB00374

>  <DATABASE_NAME>  (1) 
drugbank

>  <DRUGBANK_ID>  (1) 
DB00374

>  <DRUG_GROUPS>  (1) 
approved; investigational

>  <EXACT_MASS>  (1) 
390.240624198

>  <FORMULA>  (1) 
C23H34O5

>  <GENERIC_NAME>  (1) 
Treprostinil

>  <INCHI_IDENTIFIER>  (1) 
InChI=1S/C23H34O5/c1-2-3-4-7-17(24)9-10-18-19-11-15-6-5-8-22(28-14-23(26)27)20(15)12-16(19)13-21(18)25/h5-6,8,16-19,21,24-25H,2-4,7,9-14H2,1H3,(H,26,27)/t16-,17-,18+,19-,21+/m0/s1

>  <INCHI_KEY>  (1) 
PAJMKGZZBBTTOY-ZFORQUDYSA-N

>  <JCHEM_ACCEPTOR_COUNT>  (1) 
5

>  <JCHEM_AVERAGE_POLARIZABILITY>  (1) 
45.744447680648875

>  <JCHEM_BIOAVAILABILITY>  (1) 
1

>  <JCHEM_DONOR_COUNT>  (1) 
3

>  <JCHEM_FORMAL_CHARGE>  (1) 
0

>  <JCHEM_GHOSE_FILTER>  (1) 
1

>  <JCHEM_IUPAC>  (1) 
2-{[(1R,2R,3aS,9aS)-2-hydroxy-1-[(3S)-3-hydroxyoctyl]-1H,2H,3H,3aH,4H,9H,9aH-cyclopenta[b]naphthalen-5-yl]oxy}acetic acid

>  <JCHEM_LOGP>  (1) 
4.004209447

>  <JCHEM_MDDR_LIKE_RULE>  (1) 
1

>  <JCHEM_NUMBER_OF_RINGS>  (1) 
3

>  <JCHEM_PHYSIOLOGICAL_CHARGE>  (1) 
-1

>  <JCHEM_PKA>  (1) 
14.93113067764028

>  <JCHEM_PKA_STRONGEST_ACIDIC>  (1) 
3.7604360397133454

>  <JCHEM_PKA_STRONGEST_BASIC>  (1) 
-1.2797448535177374

>  <JCHEM_POLAR_SURFACE_AREA>  (1) 
86.99000000000001

>  <JCHEM_REFRACTIVITY>  (1) 
108.00159999999998

>  <JCHEM_ROTATABLE_BOND_COUNT>  (1) 
10

>  <JCHEM_RULE_OF_FIVE>  (1) 
1

>  <JCHEM_TRADITIONAL_IUPAC>  (1) 
treprostinil

>  <JCHEM_VEBER_RULE>  (1) 
0

>  <MOLECULAR_WEIGHT>  (1) 
390.5131

>  <PRODUCTS>  (1) 
Orenitram; Remodulin; Tyvaso

>  <SALTS>  (1) 
Treprostinil diolamine; Treprostinil sodium

>  <SECONDARY_ACCESSION_NUMBERS>  (1) 
APRD01272

>  <SMILES>  (1) 
[H][C@]12C[C@@H](O)[C@H](CC[C@@H](O)CCCCC)[C@@]1([H])CC1=C(C2)C(OCC(O)=O)=CC=C1

>  <SYNONYMS>  (1) 
(1R,2R,3aS,9aS)-[[2,3,3a,4,9,9a-hexahydro-2-hydroxy- 1-[(3S)-3-hydroxyoctyl]-1H-benz[f]inden-5-yl] oxy]acetic acid; [[(1R,2R,3aS,9aS)-2-Hydroxy-1-[(3S)-3-hydroxyoctyl]-2,3,3a,4,9,9a-hexahydro-1H-cyclopenta[b]naphtalen-5-yl]oxy]acetic acid; Treprostinil; Treprostinilo; Treprostinilum; Uniprost

$$$$
