449
     RDKit          2D

 54 54  0  0  1  0  0  0  0  0999 V2000
    5.2224    1.2375    0.0000 O   0  0  0  0  0  0  0  0  0  0  0  0
    3.7935    0.4125    0.0000 O   0  0  0  0  0  0  0  0  0  0  0  0
    7.3659   -0.8250    0.0000 O   0  0  0  0  0  0  0  0  0  0  0  0
    6.6515    1.2375    0.0000 O   0  0  0  0  0  0  0  0  0  0  0  0
    3.0791   -0.8250    0.0000 O   0  0  0  0  0  0  0  0  0  0  0  0
    7.3659   -2.4751    0.0000 N   0  0  0  0  0  0  0  0  0  0  0  0
    5.9370    2.4751    0.0000 C   0  0  0  0  0  0  0  0  0  0  0  0
    2.3645    0.4125    0.0000 C   0  0  0  0  0  0  0  0  0  0  0  0
    5.9370   -0.8250    0.0000 C   0  0  0  0  0  0  0  0  0  0  0  0
    6.6515   -1.2375    0.0000 C   0  0  0  0  0  0  0  0  0  0  0  0
    5.1120    2.4751    0.0000 C   0  0  0  0  0  0  0  0  0  0  0  0
    6.7620    2.4751    0.0000 C   0  0  0  0  0  0  0  0  0  0  0  0
    5.9370    3.3001    0.0000 C   0  0  0  0  0  0  0  0  0  0  0  0
    5.9370    1.6500    0.0000 C   0  0  0  0  0  0  0  0  0  0  0  0
    2.7770    1.1270    0.0000 C   0  0  0  0  0  0  0  0  0  0  0  0
    1.9520   -0.3020    0.0000 C   0  0  0  0  0  0  0  0  0  0  0  0
    1.6500    0.8250    0.0000 C   0  0  0  0  0  0  0  0  0  0  0  0
    3.0791    0.0000    0.0000 C   0  0  0  0  0  0  0  0  0  0  0  0
    5.2224    0.4125    0.0000 C   0  0  0  0  0  0  0  0  0  0  0  0
    4.5080    0.0000    0.0000 C   0  0  0  0  0  0  0  0  0  0  0  0
    5.9370    0.0000    0.0000 C   0  0  0  0  0  0  0  0  0  0  0  0
    6.6515   -2.0625    0.0000 C   0  0  0  0  0  0  0  0  0  0  0  0
    5.2224   -1.2375    0.0000 C   0  0  0  0  0  0  0  0  0  0  0  0
    4.5080   -0.8250    0.0000 C   0  0  0  0  0  0  0  0  0  0  0  0
    7.3659   -3.3001    0.0000 C   0  0  0  0  0  0  0  0  0  0  0  0
    0.0000    0.0000    0.0000 H   0  0  0  0  0  0  0  0  0  0  0  0
    0.0000    0.0000    0.0000 H   0  0  0  0  0  0  0  0  0  0  0  0
    0.0000    0.0000    0.0000 H   0  0  0  0  0  0  0  0  0  0  0  0
    0.0000    0.0000    0.0000 H   0  0  0  0  0  0  0  0  0  0  0  0
    0.0000    0.0000    0.0000 H   0  0  0  0  0  0  0  0  0  0  0  0
    0.0000    0.0000    0.0000 H   0  0  0  0  0  0  0  0  0  0  0  0
    0.0000    0.0000    0.0000 H   0  0  0  0  0  0  0  0  0  0  0  0
    0.0000    0.0000    0.0000 H   0  0  0  0  0  0  0  0  0  0  0  0
    0.0000    0.0000    0.0000 H   0  0  0  0  0  0  0  0  0  0  0  0
    0.0000    0.0000    0.0000 H   0  0  0  0  0  0  0  0  0  0  0  0
    0.0000    0.0000    0.0000 H   0  0  0  0  0  0  0  0  0  0  0  0
    0.0000    0.0000    0.0000 H   0  0  0  0  0  0  0  0  0  0  0  0
    0.0000    0.0000    0.0000 H   0  0  0  0  0  0  0  0  0  0  0  0
    0.0000    0.0000    0.0000 H   0  0  0  0  0  0  0  0  0  0  0  0
    0.0000    0.0000    0.0000 H   0  0  0  0  0  0  0  0  0  0  0  0
    0.0000    0.0000    0.0000 H   0  0  0  0  0  0  0  0  0  0  0  0
    0.0000    0.0000    0.0000 H   0  0  0  0  0  0  0  0  0  0  0  0
    0.0000    0.0000    0.0000 H   0  0  0  0  0  0  0  0  0  0  0  0
    0.0000    0.0000    0.0000 H   0  0  0  0  0  0  0  0  0  0  0  0
    0.0000    0.0000    0.0000 H   0  0  0  0  0  0  0  0  0  0  0  0
    0.0000    0.0000    0.0000 H   0  0  0  0  0  0  0  0  0  0  0  0
    0.0000    0.0000    0.0000 H   0  0  0  0  0  0  0  0  0  0  0  0
    0.0000    0.0000    0.0000 H   0  0  0  0  0  0  0  0  0  0  0  0
    0.0000    0.0000    0.0000 H   0  0  0  0  0  0  0  0  0  0  0  0
    0.0000    0.0000    0.0000 H   0  0  0  0  0  0  0  0  0  0  0  0
    0.0000    0.0000    0.0000 H   0  0  0  0  0  0  0  0  0  0  0  0
    0.0000    0.0000    0.0000 H   0  0  0  0  0  0  0  0  0  0  0  0
    0.0000    0.0000    0.0000 H   0  0  0  0  0  0  0  0  0  0  0  0
    0.0000    0.0000    0.0000 H   0  0  0  0  0  0  0  0  0  0  0  0
  1 14  1  0
  1 19  1  0
  2 18  1  0
  2 20  1  0
  3 10  1  0
  4 14  2  0
  5 18  2  0
  6 22  1  0
  6 25  1  0
  7 11  1  0
  7 12  1  0
  7 13  1  0
  7 14  1  0
  8 15  1  0
  8 16  1  0
  8 17  1  0
  8 18  1  0
  9 10  1  0
  9 21  2  0
  9 23  1  0
 10 22  1  0
 19 20  2  0
 19 21  1  0
 20 24  1  0
 23 24  2  0
  3 26  1  0
  6 27  1  0
 10 28  1  0
 11 29  1  0
 11 30  1  0
 11 31  1  0
 12 32  1  0
 12 33  1  0
 12 34  1  0
 13 35  1  0
 13 36  1  0
 13 37  1  0
 15 38  1  0
 15 39  1  0
 15 40  1  0
 16 41  1  0
 16 42  1  0
 16 43  1  0
 17 44  1  0
 17 45  1  0
 17 46  1  0
 21 47  1  0
 22 48  1  0
 22 49  1  0
 23 50  1  0
 24 51  1  0
 25 52  1  0
 25 53  1  0
 25 54  1  0
M  END
>  <ALOGPS_LOGP>  (1) 
3.17

>  <ALOGPS_LOGS>  (1) 
-3.78

>  <ALOGPS_SOLUBILITY>  (1) 
5.82e-02 g/l

>  <DATABASE_ID>  (1) 
DB00449

>  <DATABASE_NAME>  (1) 
drugbank

>  <DRUGBANK_ID>  (1) 
DB00449

>  <DRUG_GROUPS>  (1) 
approved

>  <EXACT_MASS>  (1) 
351.204573043

>  <FORMULA>  (1) 
C19H29NO5

>  <GENERIC_NAME>  (1) 
Dipivefrin

>  <INCHI_IDENTIFIER>  (1) 
InChI=1S/C19H29NO5/c1-18(2,3)16(22)24-14-9-8-12(13(21)11-20-7)10-15(14)25-17(23)19(4,5)6/h8-10,13,20-21H,11H2,1-7H3

>  <INCHI_KEY>  (1) 
OCUJLLGVOUDECM-UHFFFAOYSA-N

>  <INTERNATIONAL_BRANDS>  (1) 
AKPro; D Epifrin; Diopine; Pivalephrine; Propine; Thilodrin

>  <JCHEM_ACCEPTOR_COUNT>  (1) 
4

>  <JCHEM_AVERAGE_POLARIZABILITY>  (1) 
38.6466263123802

>  <JCHEM_BIOAVAILABILITY>  (1) 
1

>  <JCHEM_DONOR_COUNT>  (1) 
2

>  <JCHEM_FORMAL_CHARGE>  (1) 
0

>  <JCHEM_GHOSE_FILTER>  (1) 
1

>  <JCHEM_IUPAC>  (1) 
2-[(2,2-dimethylpropanoyl)oxy]-5-[1-hydroxy-2-(methylamino)ethyl]phenyl 2,2-dimethylpropanoate

>  <JCHEM_LOGP>  (1) 
3.714854507000001

>  <JCHEM_MDDR_LIKE_RULE>  (1) 
0

>  <JCHEM_NUMBER_OF_RINGS>  (1) 
1

>  <JCHEM_PHYSIOLOGICAL_CHARGE>  (1) 
1

>  <JCHEM_PKA_STRONGEST_ACIDIC>  (1) 
14.000170168929397

>  <JCHEM_PKA_STRONGEST_BASIC>  (1) 
9.327951960406976

>  <JCHEM_POLAR_SURFACE_AREA>  (1) 
84.86

>  <JCHEM_REFRACTIVITY>  (1) 
94.93809999999999

>  <JCHEM_ROTATABLE_BOND_COUNT>  (1) 
9

>  <JCHEM_RULE_OF_FIVE>  (1) 
1

>  <JCHEM_TRADITIONAL_IUPAC>  (1) 
dipivefrin

>  <JCHEM_VEBER_RULE>  (1) 
0

>  <MOLECULAR_WEIGHT>  (1) 
351.4373

>  <PRODUCTS>  (1) 
Apo-dipivefrin; Dipivefrin-liq Oph 0.1%; Dpe Ophthalmic Solution - 0.1%; PMS-dipivefrin; Probeta - Liq Oph; Propine Liq 0.1%; Ratio-dipivefrin

>  <SALTS>  (1) 
Dipivefrin Hydrochloride

>  <SECONDARY_ACCESSION_NUMBERS>  (1) 
APRD00930

>  <SMILES>  (1) 
CNCC(O)C1=CC(OC(=O)C(C)(C)C)=C(OC(=O)C(C)(C)C)C=C1

>  <SYNONYMS>  (1) 
Dipivalyl Epinephrine ; Dipivefrin; Dipivefrina; Dipiv√©frine; Dipivefrinum; Pro-Epinephrine

$$$$
