790
     RDKit          2D

 58 59  0  0  1  0  0  0  0  0999 V2000
    5.4686   -1.0977    0.0000 O   0  0  0  0  0  0  0  0  0  0  0  0
    6.1240   -3.4305    0.0000 O   0  0  0  0  0  0  0  0  0  0  0  0
    6.1240   -2.0015    0.0000 O   0  0  0  0  0  0  0  0  0  0  0  0
    3.5210    2.1428    0.0000 O   0  0  0  0  0  0  0  0  0  0  0  0
    4.8792    1.6988    0.0000 O   0  0  0  0  0  0  0  0  0  0  0  0
    4.4050   -2.0521    0.0000 N   0  0  0  0  0  0  0  0  0  0  0  0
    4.3666    0.1304    0.0000 N   0  0  0  0  0  0  0  0  0  0  0  0
    3.6243   -3.1285    0.0000 C   0  0  0  0  0  0  0  0  0  0  0  0
    3.6243   -2.3035    0.0000 C   0  0  0  0  0  0  0  0  0  0  0  0
    4.4050   -3.3799    0.0000 C   0  0  0  0  0  0  0  0  0  0  0  0
    4.8865   -2.7160    0.0000 C   0  0  0  0  0  0  0  0  0  0  0  0
    2.9099   -3.5410    0.0000 C   0  0  0  0  0  0  0  0  0  0  0  0
    2.9099   -1.8910    0.0000 C   0  0  0  0  0  0  0  0  0  0  0  0
    2.1953   -3.1285    0.0000 C   0  0  0  0  0  0  0  0  0  0  0  0
    2.1953   -2.3035    0.0000 C   0  0  0  0  0  0  0  0  0  0  0  0
    4.6613   -1.2679    0.0000 C   0  0  0  0  0  0  0  0  0  0  0  0
    5.7115   -2.7160    0.0000 C   0  0  0  0  0  0  0  0  0  0  0  0
    4.1103   -0.6538    0.0000 C   0  0  0  0  0  0  0  0  0  0  0  0
    3.3030   -0.8240    0.0000 C   0  0  0  0  0  0  0  0  0  0  0  0
    3.8157    0.7445    0.0000 C   0  0  0  0  0  0  0  0  0  0  0  0
    3.0083    0.5743    0.0000 C   0  0  0  0  0  0  0  0  0  0  0  0
    4.0719    1.5287    0.0000 C   0  0  0  0  0  0  0  0  0  0  0  0
    2.4573    1.1884    0.0000 C   0  0  0  0  0  0  0  0  0  0  0  0
    1.6501    1.0182    0.0000 C   0  0  0  0  0  0  0  0  0  0  0  0
    3.7772    2.9269    0.0000 C   0  0  0  0  0  0  0  0  0  0  0  0
    3.2263    3.5410    0.0000 C   0  0  0  0  0  0  0  0  0  0  0  0
    0.0000    0.0000    0.0000 H   0  0  0  0  0  0  0  0  0  0  0  0
    0.0000    0.0000    0.0000 H   0  0  0  0  0  0  0  0  0  0  0  0
    0.0000    0.0000    0.0000 H   0  0  0  0  0  0  0  0  0  0  0  0
    0.0000    0.0000    0.0000 H   0  0  0  0  0  0  0  0  0  0  0  0
    0.0000    0.0000    0.0000 H   0  0  0  0  0  0  0  0  0  0  0  0
    0.0000    0.0000    0.0000 H   0  0  0  0  0  0  0  0  0  0  0  0
    0.0000    0.0000    0.0000 H   0  0  0  0  0  0  0  0  0  0  0  0
    0.0000    0.0000    0.0000 H   0  0  0  0  0  0  0  0  0  0  0  0
    0.0000    0.0000    0.0000 H   0  0  0  0  0  0  0  0  0  0  0  0
    0.0000    0.0000    0.0000 H   0  0  0  0  0  0  0  0  0  0  0  0
    0.0000    0.0000    0.0000 H   0  0  0  0  0  0  0  0  0  0  0  0
    0.0000    0.0000    0.0000 H   0  0  0  0  0  0  0  0  0  0  0  0
    0.0000    0.0000    0.0000 H   0  0  0  0  0  0  0  0  0  0  0  0
    0.0000    0.0000    0.0000 H   0  0  0  0  0  0  0  0  0  0  0  0
    0.0000    0.0000    0.0000 H   0  0  0  0  0  0  0  0  0  0  0  0
    0.0000    0.0000    0.0000 H   0  0  0  0  0  0  0  0  0  0  0  0
    0.0000    0.0000    0.0000 H   0  0  0  0  0  0  0  0  0  0  0  0
    0.0000    0.0000    0.0000 H   0  0  0  0  0  0  0  0  0  0  0  0
    0.0000    0.0000    0.0000 H   0  0  0  0  0  0  0  0  0  0  0  0
    0.0000    0.0000    0.0000 H   0  0  0  0  0  0  0  0  0  0  0  0
    0.0000    0.0000    0.0000 H   0  0  0  0  0  0  0  0  0  0  0  0
    0.0000    0.0000    0.0000 H   0  0  0  0  0  0  0  0  0  0  0  0
    0.0000    0.0000    0.0000 H   0  0  0  0  0  0  0  0  0  0  0  0
    0.0000    0.0000    0.0000 H   0  0  0  0  0  0  0  0  0  0  0  0
    0.0000    0.0000    0.0000 H   0  0  0  0  0  0  0  0  0  0  0  0
    0.0000    0.0000    0.0000 H   0  0  0  0  0  0  0  0  0  0  0  0
    0.0000    0.0000    0.0000 H   0  0  0  0  0  0  0  0  0  0  0  0
    0.0000    0.0000    0.0000 H   0  0  0  0  0  0  0  0  0  0  0  0
    0.0000    0.0000    0.0000 H   0  0  0  0  0  0  0  0  0  0  0  0
    0.0000    0.0000    0.0000 H   0  0  0  0  0  0  0  0  0  0  0  0
    0.0000    0.0000    0.0000 H   0  0  0  0  0  0  0  0  0  0  0  0
    0.0000    0.0000    0.0000 H   0  0  0  0  0  0  0  0  0  0  0  0
  1 16  2  0
  2 17  1  0
  3 17  2  0
  4 22  1  0
  4 25  1  0
  5 22  2  0
  6  9  1  0
  6 11  1  0
  6 16  1  0
 18  7  1  6
 20  7  1  6
  8  9  1  0
  8 10  1  0
  8 12  1  0
  9 13  1  0
 10 11  1  0
 11 17  1  1
 12 14  1  0
 13 15  1  0
 14 15  1  0
 16 18  1  0
 18 19  1  0
 20 21  1  0
 20 22  1  0
 21 23  1  0
 23 24  1  0
 25 26  1  0
  2 27  1  0
  7 28  1  0
  8 29  1  1
  9 30  1  1
 10 31  1  0
 10 32  1  0
 11 33  1  0
 12 34  1  0
 12 35  1  0
 13 36  1  0
 13 37  1  0
 14 38  1  0
 14 39  1  0
 15 40  1  0
 15 41  1  0
 18 42  1  0
 19 43  1  0
 19 44  1  0
 19 45  1  0
 20 46  1  0
 21 47  1  0
 21 48  1  0
 23 49  1  0
 23 50  1  0
 24 51  1  0
 24 52  1  0
 24 53  1  0
 25 54  1  0
 25 55  1  0
 26 56  1  0
 26 57  1  0
 26 58  1  0
M  END
>  <ALOGPS_LOGP>  (1) 
0.56

>  <ALOGPS_LOGS>  (1) 
-2.48

>  <ALOGPS_SOLUBILITY>  (1) 
1.22e+00 g/l

>  <DATABASE_ID>  (1) 
DB00790

>  <DATABASE_NAME>  (1) 
drugbank

>  <DRUGBANK_ID>  (1) 
DB00790

>  <DRUG_GROUPS>  (1) 
approved

>  <EXACT_MASS>  (1) 
368.231122144

>  <FORMULA>  (1) 
C19H32N2O5

>  <GENERIC_NAME>  (1) 
Perindopril

>  <INCHI_IDENTIFIER>  (1) 
InChI=1S/C19H32N2O5/c1-4-8-14(19(25)26-5-2)20-12(3)17(22)21-15-10-7-6-9-13(15)11-16(21)18(23)24/h12-16,20H,4-11H2,1-3H3,(H,23,24)/t12-,13-,14-,15-,16-/m0/s1

>  <INCHI_KEY>  (1) 
IPVQLZZIHOAWMC-QXKUPLGCSA-N

>  <INTERNATIONAL_BRANDS>  (1) 
Coversyl

>  <JCHEM_ACCEPTOR_COUNT>  (1) 
5

>  <JCHEM_AVERAGE_POLARIZABILITY>  (1) 
39.9984417915483

>  <JCHEM_BIOAVAILABILITY>  (1) 
1

>  <JCHEM_DONOR_COUNT>  (1) 
2

>  <JCHEM_FORMAL_CHARGE>  (1) 
0

>  <JCHEM_GHOSE_FILTER>  (1) 
1

>  <JCHEM_IUPAC>  (1) 
(2S,3aS,7aS)-1-[(2S)-2-{[(2S)-1-ethoxy-1-oxopentan-2-yl]amino}propanoyl]-octahydro-1H-indole-2-carboxylic acid

>  <JCHEM_LOGP>  (1) 
0.6307438391420584

>  <JCHEM_MDDR_LIKE_RULE>  (1) 
0

>  <JCHEM_NUMBER_OF_RINGS>  (1) 
2

>  <JCHEM_PHYSIOLOGICAL_CHARGE>  (1) 
-1

>  <JCHEM_PKA_STRONGEST_ACIDIC>  (1) 
3.7860549560034094

>  <JCHEM_PKA_STRONGEST_BASIC>  (1) 
5.480288012911529

>  <JCHEM_POLAR_SURFACE_AREA>  (1) 
95.93999999999998

>  <JCHEM_REFRACTIVITY>  (1) 
95.69279999999998

>  <JCHEM_ROTATABLE_BOND_COUNT>  (1) 
9

>  <JCHEM_RULE_OF_FIVE>  (1) 
1

>  <JCHEM_TRADITIONAL_IUPAC>  (1) 
perindopril

>  <JCHEM_VEBER_RULE>  (1) 
0

>  <MOLECULAR_WEIGHT>  (1) 
368.4678

>  <PRODUCTS>  (1) 
Aceon; Apo-perindopril; Arcosyl; Arcosyl Plus; Arcosyl Plus Ld; Coversyl; Coversyl Plus; Coversyl Plus Hd; Coversyl Plus Ld; Perindopril Erbumine; Prestalia; Viacoram

>  <SALTS>  (1) 
Perindopril arginine; Perindopril erbumine

>  <SECONDARY_ACCESSION_NUMBERS>  (1) 
APRD01178

>  <SMILES>  (1) 
[H][C@]12C[C@H](N(C(=O)[C@H](C)N[C@@H](CCC)C(=O)OCC)[C@@]1([H])CCCC2)C(O)=O

>  <SYNONYMS>  (1) 
Perindoprilum

$$$$
