
     RDKit          2D

 39 40  0  0  0  0  0  0  0  0999 V2000
    3.8484   -3.8637    0.0000 C   0  0  0  0  0  0  0  0  0  0  0  0
    4.5652   -3.4465    0.0000 C   0  0  0  0  0  0  0  0  0  0  0  0
    3.8484   -4.6910    0.0000 C   0  0  0  0  0  0  0  0  0  0  0  0
    3.1311   -3.4465    0.0000 C   0  0  0  0  0  0  0  0  0  0  0  0
    5.2790   -3.8603    0.0000 C   0  0  0  0  0  0  0  0  0  0  0  0
    3.1311   -5.1047    0.0000 C   0  0  0  0  0  0  0  0  0  0  0  0
    2.4109   -3.8637    0.0000 C   0  0  0  0  0  0  0  0  0  0  0  0
    5.9959   -3.4465    0.0000 N   0  0  0  0  0  0  0  0  0  0  0  0
    5.2824   -4.6841    0.0000 C   0  0  0  0  0  0  0  0  0  0  0  0
    2.4109   -4.6910    0.0000 C   0  0  0  0  0  0  0  0  0  0  0  0
    6.7095   -3.8568    0.0000 C   0  0  0  0  0  0  0  0  0  0  0  0
    5.9924   -2.6193    0.0000 C   0  0  0  0  0  0  0  0  0  0  0  0
    7.4232   -3.4432    0.0000 C   0  0  0  0  0  0  0  0  0  0  0  0
    8.1367   -3.8568    0.0000 C   0  0  0  0  0  0  0  0  0  0  0  0
    7.4196   -2.6193    0.0000 C   0  0  0  0  0  0  0  0  0  0  0  0
    8.8501   -3.4432    0.0000 C   0  0  0  0  0  0  0  0  0  0  0  0
    8.1332   -2.2056    0.0000 C   0  0  0  0  0  0  0  0  0  0  0  0
    8.8467   -2.6193    0.0000 C   0  0  0  0  0  0  0  0  0  0  0  0
    0.0000    0.0000    0.0000 H   0  0  0  0  0  0  0  0  0  0  0  0
    0.0000    0.0000    0.0000 H   0  0  0  0  0  0  0  0  0  0  0  0
    0.0000    0.0000    0.0000 H   0  0  0  0  0  0  0  0  0  0  0  0
    0.0000    0.0000    0.0000 H   0  0  0  0  0  0  0  0  0  0  0  0
    0.0000    0.0000    0.0000 H   0  0  0  0  0  0  0  0  0  0  0  0
    0.0000    0.0000    0.0000 H   0  0  0  0  0  0  0  0  0  0  0  0
    0.0000    0.0000    0.0000 H   0  0  0  0  0  0  0  0  0  0  0  0
    0.0000    0.0000    0.0000 H   0  0  0  0  0  0  0  0  0  0  0  0
    0.0000    0.0000    0.0000 H   0  0  0  0  0  0  0  0  0  0  0  0
    0.0000    0.0000    0.0000 H   0  0  0  0  0  0  0  0  0  0  0  0
    0.0000    0.0000    0.0000 H   0  0  0  0  0  0  0  0  0  0  0  0
    0.0000    0.0000    0.0000 H   0  0  0  0  0  0  0  0  0  0  0  0
    0.0000    0.0000    0.0000 H   0  0  0  0  0  0  0  0  0  0  0  0
    0.0000    0.0000    0.0000 H   0  0  0  0  0  0  0  0  0  0  0  0
    0.0000    0.0000    0.0000 H   0  0  0  0  0  0  0  0  0  0  0  0
    0.0000    0.0000    0.0000 H   0  0  0  0  0  0  0  0  0  0  0  0
    0.0000    0.0000    0.0000 H   0  0  0  0  0  0  0  0  0  0  0  0
    0.0000    0.0000    0.0000 H   0  0  0  0  0  0  0  0  0  0  0  0
    0.0000    0.0000    0.0000 H   0  0  0  0  0  0  0  0  0  0  0  0
    0.0000    0.0000    0.0000 H   0  0  0  0  0  0  0  0  0  0  0  0
    0.0000    0.0000    0.0000 H   0  0  0  0  0  0  0  0  0  0  0  0
  1  2  1  0
  1  3  2  0
  1  4  1  0
  5  2  1  1
  3  6  1  0
  4  7  2  0
  5  8  1  0
  5  9  1  0
  6 10  2  0
  8 11  1  0
  8 12  1  0
 11 13  1  0
 13 14  2  0
 13 15  1  0
 14 16  1  0
 15 17  2  0
 16 18  2  0
  7 10  1  0
 17 18  1  0
  2 19  1  0
  2 20  1  0
  3 21  1  0
  4 22  1  0
  5 23  1  0
  6 24  1  0
  7 25  1  0
  9 26  1  0
  9 27  1  0
  9 28  1  0
 10 29  1  0
 11 30  1  0
 11 31  1  0
 12 32  1  0
 12 33  1  0
 12 34  1  0
 14 35  1  0
 15 36  1  0
 16 37  1  0
 17 38  1  0
 18 39  1  0
M  END
>  <ALOGPS_LOGP>  (1) 
3.72

>  <ALOGPS_LOGS>  (1) 
-4.01

>  <ALOGPS_SOLUBILITY>  (1) 
2.33e-02 g/l

>  <DATABASE_ID>  (1) 
DB00865

>  <DATABASE_NAME>  (1) 
drugbank

>  <DRUGBANK_ID>  (1) 
DB00865

>  <DRUG_GROUPS>  (1) 
approved; illicit

>  <EXACT_MASS>  (1) 
239.167399677

>  <FORMULA>  (1) 
C17H21N

>  <GENERIC_NAME>  (1) 
Benzphetamine

>  <INCHI_IDENTIFIER>  (1) 
InChI=1S/C17H21N/c1-15(13-16-9-5-3-6-10-16)18(2)14-17-11-7-4-8-12-17/h3-12,15H,13-14H2,1-2H3/t15-/m0/s1

>  <INCHI_KEY>  (1) 
YXKTVDFXDRQTKV-HNNXBMFYSA-N

>  <JCHEM_ACCEPTOR_COUNT>  (1) 
1

>  <JCHEM_AVERAGE_POLARIZABILITY>  (1) 
29.029218498272606

>  <JCHEM_BIOAVAILABILITY>  (1) 
1

>  <JCHEM_DONOR_COUNT>  (1) 
0

>  <JCHEM_FORMAL_CHARGE>  (1) 
0

>  <JCHEM_GHOSE_FILTER>  (1) 
1

>  <JCHEM_IUPAC>  (1) 
benzyl(methyl)[(2S)-1-phenylpropan-2-yl]amine

>  <JCHEM_LOGP>  (1) 
4.34435193

>  <JCHEM_MDDR_LIKE_RULE>  (1) 
0

>  <JCHEM_NUMBER_OF_RINGS>  (1) 
2

>  <JCHEM_PHYSIOLOGICAL_CHARGE>  (1) 
1

>  <JCHEM_PKA_STRONGEST_BASIC>  (1) 
9.804145366577789

>  <JCHEM_POLAR_SURFACE_AREA>  (1) 
3.24

>  <JCHEM_REFRACTIVITY>  (1) 
78.38710000000002

>  <JCHEM_ROTATABLE_BOND_COUNT>  (1) 
5

>  <JCHEM_RULE_OF_FIVE>  (1) 
1

>  <JCHEM_TRADITIONAL_IUPAC>  (1) 
benzphetamine

>  <JCHEM_VEBER_RULE>  (1) 
1

>  <MOLECULAR_WEIGHT>  (1) 
239.3553

>  <PRODUCTS>  (1) 
Benzphetamine; Benzphetamine Hydrochloride; Didrex; Regimex

>  <SALTS>  (1) 
Benzphetamine Hydrochloride

>  <SECONDARY_ACCESSION_NUMBERS>  (1) 
APRD00759

>  <SMILES>  (1) 
C[C@@H](CC1=CC=CC=C1)N(C)CC1=CC=CC=C1

>  <SYNONYMS>  (1) 
(+)-benzphetamine; (+)-N-benzyl-N,α-dimethylphenethylamine; (+)-N,α-dimethyl-N-(phenylmethyl)-benzeneethanamine; (S)-(+)-benzphetamine; (S)-(+)-N-benzyl-N,α-dimethylphenethylamine; (S)-benzphetamine; Benzaphetamine; Benzfetamine; Benzylamphetamine; d-N-methyl-N-benzyl-β-phenylisopropylamine; N-methyl-1-phenyl-N-(phenylmethyl)propan-2-amine

$$$$
