
     RDKit          2D

 32 32  0  0  1  0  0  0  0  0999 V2000
   -0.7145    0.4125    0.0000 C   0  0  0  0  0  0  0  0  0  0  0  0
   -0.7145   -0.4125    0.0000 C   0  0  0  0  0  0  0  0  0  0  0  0
    0.0000   -0.8250    0.0000 C   0  0  0  0  0  0  0  0  0  0  0  0
    0.0000    0.8250    0.0000 C   0  0  0  0  0  0  0  0  0  0  0  0
    0.7145   -0.4125    0.0000 C   0  0  0  0  0  0  0  0  0  0  0  0
    0.7145    0.4125    0.0000 C   0  0  0  0  0  0  0  0  0  0  0  0
   -1.4289   -0.8250    0.0000 C   0  0  0  0  0  0  0  0  0  0  0  0
   -2.1434   -0.4125    0.0000 C   0  0  0  0  0  0  0  0  0  0  0  0
   -1.4289   -1.6500    0.0000 O   0  0  0  0  0  0  0  0  0  0  0  0
   -2.8579   -0.8250    0.0000 N   0  0  0  0  0  0  0  0  0  0  0  0
   -2.1434    0.4125    0.0000 C   0  0  0  0  0  0  0  0  0  0  0  0
   -3.5724   -0.4125    0.0000 C   0  0  0  0  0  0  0  0  0  0  0  0
   -1.4289    0.8250    0.0000 O   0  0  0  0  0  0  0  0  0  0  0  0
    1.4289    0.8250    0.0000 N   0  0  0  0  0  0  0  0  0  0  0  0
   -4.2868   -0.8250    0.0000 C   0  0  0  0  0  0  0  0  0  0  0  0
   -3.5724    0.4125    0.0000 O   0  0  0  0  0  0  0  0  0  0  0  0
    2.1434    0.4125    0.0000 O   0  0  0  0  0  0  0  0  0  0  0  0
    1.4289    1.6500    0.0000 O   0  0  0  0  0  0  0  0  0  0  0  0
   -4.2868   -1.6500    0.0000 Cl  0  0  0  0  0  0  0  0  0  0  0  0
   -5.0013   -0.4125    0.0000 Cl  0  0  0  0  0  0  0  0  0  0  0  0
    0.0000    0.0000    0.0000 H   0  0  0  0  0  0  0  0  0  0  0  0
    0.0000    0.0000    0.0000 H   0  0  0  0  0  0  0  0  0  0  0  0
    0.0000    0.0000    0.0000 H   0  0  0  0  0  0  0  0  0  0  0  0
    0.0000    0.0000    0.0000 H   0  0  0  0  0  0  0  0  0  0  0  0
    0.0000    0.0000    0.0000 H   0  0  0  0  0  0  0  0  0  0  0  0
    0.0000    0.0000    0.0000 H   0  0  0  0  0  0  0  0  0  0  0  0
    0.0000    0.0000    0.0000 H   0  0  0  0  0  0  0  0  0  0  0  0
    0.0000    0.0000    0.0000 H   0  0  0  0  0  0  0  0  0  0  0  0
    0.0000    0.0000    0.0000 H   0  0  0  0  0  0  0  0  0  0  0  0
    0.0000    0.0000    0.0000 H   0  0  0  0  0  0  0  0  0  0  0  0
    0.0000    0.0000    0.0000 H   0  0  0  0  0  0  0  0  0  0  0  0
    0.0000    0.0000    0.0000 H   0  0  0  0  0  0  0  0  0  0  0  0
  2  1  2  0
  7  2  1  1
  2  3  1  0
  1  4  1  0
  3  5  2  0
  4  6  2  0
  5  6  1  0
  6 14  1  0
  7  8  1  0
  7  9  1  0
  8 10  1  1
  8 11  1  0
 10 12  1  0
 11 13  1  0
 12 15  1  0
 12 16  2  0
 14 17  1  0
 14 18  2  0
 15 19  1  0
 15 20  1  0
  1 21  1  0
  3 22  1  0
  4 23  1  0
  5 24  1  0
  7 25  1  0
  8 26  1  0
  9 27  1  0
 10 28  1  0
 11 29  1  0
 11 30  1  0
 13 31  1  0
 15 32  1  0
M  CHG  2  14   1  17  -1
M  END
>  <ALOGPS_LOGP>  (1) 
1.15

>  <ALOGPS_LOGS>  (1) 
-2.85

>  <ALOGPS_SOLUBILITY>  (1) 
4.61e-01 g/l

>  <DATABASE_ID>  (1) 
DB00446

>  <DATABASE_NAME>  (1) 
drugbank

>  <DRUGBANK_ID>  (1) 
DB00446

>  <DRUG_GROUPS>  (1) 
approved; vet_approved

>  <EXACT_MASS>  (1) 
322.012326918

>  <FORMULA>  (1) 
C11H12Cl2N2O5

>  <GENERIC_NAME>  (1) 
Chloramphenicol

>  <INCHI_IDENTIFIER>  (1) 
InChI=1S/C11H12Cl2N2O5/c12-10(13)11(18)14-8(5-16)9(17)6-1-3-7(4-2-6)15(19)20/h1-4,8-10,16-17H,5H2,(H,14,18)/t8-,9-/m1/s1

>  <INCHI_KEY>  (1) 
WIIZWVCIJKGZOK-RKDXNWHRSA-N

>  <INTERNATIONAL_BRANDS>  (1) 
Brochlor; Chloramex; Chlorocid; Chlorocol; Chloromycetin; Chlorsig; Fenicol; Globenicol; Halomycetin; Oleomycetin; Sificetina

>  <JCHEM_ACCEPTOR_COUNT>  (1) 
5

>  <JCHEM_AVERAGE_POLARIZABILITY>  (1) 
28.083065806597737

>  <JCHEM_BIOAVAILABILITY>  (1) 
1

>  <JCHEM_DONOR_COUNT>  (1) 
3

>  <JCHEM_FORMAL_CHARGE>  (1) 
0

>  <JCHEM_GHOSE_FILTER>  (1) 
1

>  <JCHEM_IUPAC>  (1) 
2,2-dichloro-N-[(1R,2R)-1,3-dihydroxy-1-(4-nitrophenyl)propan-2-yl]acetamide

>  <JCHEM_LOGP>  (1) 
0.8787034880000002

>  <JCHEM_MDDR_LIKE_RULE>  (1) 
0

>  <JCHEM_NUMBER_OF_RINGS>  (1) 
1

>  <JCHEM_PHYSIOLOGICAL_CHARGE>  (1) 
0

>  <JCHEM_PKA>  (1) 
13.587750033412025

>  <JCHEM_PKA_STRONGEST_ACIDIC>  (1) 
7.494317415220007

>  <JCHEM_PKA_STRONGEST_BASIC>  (1) 
-2.79485022158514

>  <JCHEM_POLAR_SURFACE_AREA>  (1) 
115.37999999999997

>  <JCHEM_REFRACTIVITY>  (1) 
73.2007

>  <JCHEM_ROTATABLE_BOND_COUNT>  (1) 
6

>  <JCHEM_RULE_OF_FIVE>  (1) 
1

>  <JCHEM_TRADITIONAL_IUPAC>  (1) 
chloramphenicol

>  <JCHEM_VEBER_RULE>  (1) 
0

>  <MOLECULAR_WEIGHT>  (1) 
323.129

>  <PRODUCTS>  (1) 
Actinac Pwr; Actinac Pws; Cebenicol Oph Liq 0.4%; Chloramphenicol; Chloramphenicol Sodium Succinate; Chloromycetin Oph Ont 1%; Chloromycetin Oph Soln 0.5%; Chloromycetin Succinate Injection 1gm; Chloroptic Dps 0.5%; Chloroptic Oph Ont 1%; Minims Chloramphenicol 0.5%; Novo-chlorocap Cap 250mg; Odan-chloramphenicol; Ophtho-chloram Liq 0.5%; Ophthocort Ont; PMS-chloramphenicol Ophthalmic Ointment; PMS-chloramphenicol Ophthalmic Soln 0.5%; Pentamycetin Liq 2.5mg/ml; Pentamycetin Ont 10mg/gm; Pentamycetin Ophthalmic Solution 0.5% - Liq; Pentamycetin/hc; Sopamycetin Oph Ont 0.2%; Sopamycetin Soln Otique 5%; Sopamycetin Solution Ophthalmique 0.2%; Sopamycetin/hc Ointment; Sopamycetin/hc Ont; Sopamycetin/hc Susp

>  <SALTS>  (1) 
Chloramphenicol palmitate; Chloramphenicol sodium succinate

>  <SECONDARY_ACCESSION_NUMBERS>  (1) 
APRD00862; EXPT00942

>  <SMILES>  (1) 
OC[C@@H](NC(=O)C(Cl)Cl)[C@H](O)C1=CC=C(C=C1)[N+]([O-])=O

>  <SYNONYMS>  (1) 
Chlornitromycin; Laevomycetinum; Levomicetina; Levomycetin

$$$$
