293
     RDKit          2D

 54 56  0  0  1  0  0  0  0  0999 V2000
    8.1753    0.3429    0.0000 S   0  0  0  0  0  0  0  0  0  0  0  0
   12.1522   -1.3618    0.0000 O   0  0  0  0  0  0  0  0  0  0  0  0
    9.8843    0.5632    0.0000 O   0  0  0  0  0  0  0  0  0  0  0  0
   10.9929   -2.1972    0.0000 O   0  0  0  0  0  0  0  0  0  0  0  0
    3.0790   -0.7894    0.0000 O   0  0  0  0  0  0  0  0  0  0  0  0
   13.1676    0.8954    0.0000 O   0  0  0  0  0  0  0  0  0  0  0  0
   11.8644    1.4816    0.0000 O   0  0  0  0  0  0  0  0  0  0  0  0
    6.7074    0.4255    0.0000 N   0  0  0  0  0  0  0  0  0  0  0  0
   10.0282   -0.8586    0.0000 N   0  0  0  0  0  0  0  0  0  0  0  0
    3.0790    1.6857    0.0000 N   0  0  0  0  0  0  0  0  0  0  0  0
    2.3645    0.4481    0.0000 N   0  0  0  0  0  0  0  0  0  0  0  0
    5.9914    0.0158    0.0000 C   0  0  0  0  0  0  0  0  0  0  0  0
   10.8490   -0.7755    0.0000 C   0  0  0  0  0  0  0  0  0  0  0  0
    5.2785    0.4310    0.0000 C   0  0  0  0  0  0  0  0  0  0  0  0
   11.1874   -0.0231    0.0000 C   0  0  0  0  0  0  0  0  0  0  0  0
    7.4203    0.0102    0.0000 C   0  0  0  0  0  0  0  0  0  0  0  0
    3.7935    0.4481    0.0000 C   0  0  0  0  0  0  0  0  0  0  0  0
    4.5310    0.0071    0.0000 C   0  0  0  0  0  0  0  0  0  0  0  0
    3.7935    1.2732    0.0000 C   0  0  0  0  0  0  0  0  0  0  0  0
   12.0083    0.0600    0.0000 C   0  0  0  0  0  0  0  0  0  0  0  0
    5.2785    1.2903    0.0000 C   0  0  0  0  0  0  0  0  0  0  0  0
    8.7250   -0.2723    0.0000 C   0  0  0  0  0  0  0  0  0  0  0  0
    4.5310    1.7143    0.0000 C   0  0  0  0  0  0  0  0  0  0  0  0
    9.5458   -0.1893    0.0000 C   0  0  0  0  0  0  0  0  0  0  0  0
    6.7107    1.2505    0.0000 C   0  0  0  0  0  0  0  0  0  0  0  0
    7.5034   -0.8106    0.0000 C   0  0  0  0  0  0  0  0  0  0  0  0
    8.3097   -0.9852    0.0000 C   0  0  0  0  0  0  0  0  0  0  0  0
   11.3313   -1.4448    0.0000 C   0  0  0  0  0  0  0  0  0  0  0  0
    3.0790    0.0356    0.0000 C   0  0  0  0  0  0  0  0  0  0  0  0
    2.3645    1.2732    0.0000 C   0  0  0  0  0  0  0  0  0  0  0  0
   12.3467    0.8123    0.0000 C   0  0  0  0  0  0  0  0  0  0  0  0
    1.6500    1.6857    0.0000 C   0  0  0  0  0  0  0  0  0  0  0  0
    0.0000    0.0000    0.0000 H   0  0  0  0  0  0  0  0  0  0  0  0
    0.0000    0.0000    0.0000 H   0  0  0  0  0  0  0  0  0  0  0  0
    0.0000    0.0000    0.0000 H   0  0  0  0  0  0  0  0  0  0  0  0
    0.0000    0.0000    0.0000 H   0  0  0  0  0  0  0  0  0  0  0  0
    0.0000    0.0000    0.0000 H   0  0  0  0  0  0  0  0  0  0  0  0
    0.0000    0.0000    0.0000 H   0  0  0  0  0  0  0  0  0  0  0  0
    0.0000    0.0000    0.0000 H   0  0  0  0  0  0  0  0  0  0  0  0
    0.0000    0.0000    0.0000 H   0  0  0  0  0  0  0  0  0  0  0  0
    0.0000    0.0000    0.0000 H   0  0  0  0  0  0  0  0  0  0  0  0
    0.0000    0.0000    0.0000 H   0  0  0  0  0  0  0  0  0  0  0  0
    0.0000    0.0000    0.0000 H   0  0  0  0  0  0  0  0  0  0  0  0
    0.0000    0.0000    0.0000 H   0  0  0  0  0  0  0  0  0  0  0  0
    0.0000    0.0000    0.0000 H   0  0  0  0  0  0  0  0  0  0  0  0
    0.0000    0.0000    0.0000 H   0  0  0  0  0  0  0  0  0  0  0  0
    0.0000    0.0000    0.0000 H   0  0  0  0  0  0  0  0  0  0  0  0
    0.0000    0.0000    0.0000 H   0  0  0  0  0  0  0  0  0  0  0  0
    0.0000    0.0000    0.0000 H   0  0  0  0  0  0  0  0  0  0  0  0
    0.0000    0.0000    0.0000 H   0  0  0  0  0  0  0  0  0  0  0  0
    0.0000    0.0000    0.0000 H   0  0  0  0  0  0  0  0  0  0  0  0
    0.0000    0.0000    0.0000 H   0  0  0  0  0  0  0  0  0  0  0  0
    0.0000    0.0000    0.0000 H   0  0  0  0  0  0  0  0  0  0  0  0
    0.0000    0.0000    0.0000 H   0  0  0  0  0  0  0  0  0  0  0  0
  1 16  1  0
  1 22  1  0
  2 28  1  0
  3 24  2  0
  4 28  2  0
  5 29  2  0
  6 31  1  0
  7 31  2  0
  8 12  1  0
  8 16  1  0
  8 25  1  0
 13  9  1  1
  9 24  1  0
 10 19  1  0
 10 30  1  0
 11 29  1  0
 11 30  2  0
 12 14  1  0
 13 15  1  0
 13 28  1  0
 14 18  2  0
 14 21  1  0
 15 20  1  0
 16 26  2  0
 17 18  1  0
 17 19  2  0
 17 29  1  0
 19 23  1  0
 20 31  1  0
 21 23  2  0
 22 24  1  0
 22 27  2  0
 26 27  1  0
 30 32  1  0
  2 33  1  0
  6 34  1  0
  9 35  1  0
 10 36  1  0
 12 37  1  0
 12 38  1  0
 13 39  1  0
 15 40  1  0
 15 41  1  0
 18 42  1  0
 20 43  1  0
 20 44  1  0
 21 45  1  0
 23 46  1  0
 25 47  1  0
 25 48  1  0
 25 49  1  0
 26 50  1  0
 27 51  1  0
 32 52  1  0
 32 53  1  0
 32 54  1  0
M  END
>  <ALOGPS_LOGP>  (1) 
1.65

>  <ALOGPS_LOGS>  (1) 
-4.40

>  <ALOGPS_SOLUBILITY>  (1) 
1.81e-02 g/l

>  <DATABASE_ID>  (1) 
DB00293

>  <DATABASE_NAME>  (1) 
drugbank

>  <DRUGBANK_ID>  (1) 
DB00293

>  <DRUG_GROUPS>  (1) 
approved; investigational

>  <EXACT_MASS>  (1) 
458.126005146

>  <FORMULA>  (1) 
C21H22N4O6S

>  <GENERIC_NAME>  (1) 
Raltitrexed

>  <INCHI_IDENTIFIER>  (1) 
InChI=1S/C21H22N4O6S/c1-11-22-14-4-3-12(9-13(14)19(28)23-11)10-25(2)17-7-6-16(32-17)20(29)24-15(21(30)31)5-8-18(26)27/h3-4,6-7,9,15H,5,8,10H2,1-2H3,(H,24,29)(H,26,27)(H,30,31)(H,22,23,28)/t15-/m0/s1

>  <INCHI_KEY>  (1) 
IVTVGDXNLFLDRM-HNNXBMFYSA-N

>  <JCHEM_ACCEPTOR_COUNT>  (1) 
9

>  <JCHEM_AVERAGE_POLARIZABILITY>  (1) 
45.554454906958014

>  <JCHEM_BIOAVAILABILITY>  (1) 
1

>  <JCHEM_DONOR_COUNT>  (1) 
4

>  <JCHEM_FORMAL_CHARGE>  (1) 
0

>  <JCHEM_GHOSE_FILTER>  (1) 
1

>  <JCHEM_IUPAC>  (1) 
(2S)-2-[(5-{methyl[(2-methyl-4-oxo-1,4-dihydroquinazolin-6-yl)methyl]amino}thiophen-2-yl)formamido]pentanedioic acid

>  <JCHEM_LOGP>  (1) 
1.970358828333333

>  <JCHEM_MDDR_LIKE_RULE>  (1) 
1

>  <JCHEM_NUMBER_OF_RINGS>  (1) 
3

>  <JCHEM_PHYSIOLOGICAL_CHARGE>  (1) 
-2

>  <JCHEM_PKA>  (1) 
4.448657561305654

>  <JCHEM_PKA_STRONGEST_ACIDIC>  (1) 
3.7238410806930564

>  <JCHEM_PKA_STRONGEST_BASIC>  (1) 
-0.4573108487877974

>  <JCHEM_POLAR_SURFACE_AREA>  (1) 
148.39999999999998

>  <JCHEM_REFRACTIVITY>  (1) 
117.39150000000001

>  <JCHEM_ROTATABLE_BOND_COUNT>  (1) 
9

>  <JCHEM_RULE_OF_FIVE>  (1) 
1

>  <JCHEM_TRADITIONAL_IUPAC>  (1) 
raltitrexed

>  <JCHEM_VEBER_RULE>  (1) 
0

>  <MOLECULAR_WEIGHT>  (1) 
458.488

>  <PRODUCTS>  (1) 
Tomudex

>  <SECONDARY_ACCESSION_NUMBERS>  (1) 
APRD00430; EXPT01092

>  <SMILES>  (1) 
CN(CC1=CC2=C(NC(C)=NC2=O)C=C1)C1=CC=C(S1)C(=O)N[C@@H](CCC(O)=O)C(O)=O

$$$$
