288
     RDKit          2D

 71 76  0  0  1  0  0  0  0  0999 V2000
    6.7264    1.4552    0.0000 F   0  0  0  0  0  0  0  0  0  0  0  0
    4.1610   -0.7835    0.0000 O   0  0  0  0  0  0  0  0  0  0  0  0
    4.6989   -1.9889    0.0000 O   0  0  0  0  0  0  0  0  0  0  0  0
    6.2941    1.9174    0.0000 O   0  0  0  0  0  0  0  0  0  0  0  0
    4.3396    0.7204    0.0000 O   0  0  0  0  0  0  0  0  0  0  0  0
    3.0240    0.2902    0.0000 O   0  0  0  0  0  0  0  0  0  0  0  0
    9.9851    2.4490    0.0000 O   0  0  0  0  0  0  0  0  0  0  0  0
    1.9969   -0.7033    0.0000 O   0  0  0  0  0  0  0  0  0  0  0  0
    5.5796   -0.1451    0.0000 C   0  0  0  0  0  0  0  0  0  0  0  0
    6.2941   -0.5576    0.0000 C   0  0  0  0  0  0  0  0  0  0  0  0
    4.9715   -0.6955    0.0000 C   0  0  0  0  0  0  0  0  0  0  0  0
    7.0086   -0.1451    0.0000 C   0  0  0  0  0  0  0  0  0  0  0  0
    5.3057   -1.4444    0.0000 C   0  0  0  0  0  0  0  0  0  0  0  0
    7.0086    0.6799    0.0000 C   0  0  0  0  0  0  0  0  0  0  0  0
    6.1215   -1.3594    0.0000 C   0  0  0  0  0  0  0  0  0  0  0  0
    5.5796    0.6799    0.0000 C   0  0  0  0  0  0  0  0  0  0  0  0
    6.2941    1.0924    0.0000 C   0  0  0  0  0  0  0  0  0  0  0  0
    7.7460    1.1209    0.0000 C   0  0  0  0  0  0  0  0  0  0  0  0
    7.7460   -0.5863    0.0000 C   0  0  0  0  0  0  0  0  0  0  0  0
    5.0492    0.4868    0.0000 C   0  0  0  0  0  0  0  0  0  0  0  0
    3.9929   -1.5813    0.0000 C   0  0  0  0  0  0  0  0  0  0  0  0
    4.3979   -0.1025    0.0000 C   0  0  0  0  0  0  0  0  0  0  0  0
    8.4936   -0.1623    0.0000 C   0  0  0  0  0  0  0  0  0  0  0  0
    8.4936    0.6971    0.0000 C   0  0  0  0  0  0  0  0  0  0  0  0
    3.8220   -2.3884    0.0000 C   0  0  0  0  0  0  0  0  0  0  0  0
    3.2781   -1.1694    0.0000 C   0  0  0  0  0  0  0  0  0  0  0  0
    7.2108    1.7489    0.0000 C   0  0  0  0  0  0  0  0  0  0  0  0
    7.7253    2.0158    0.0000 C   0  0  0  0  0  0  0  0  0  0  0  0
    3.0016   -2.4754    0.0000 C   0  0  0  0  0  0  0  0  0  0  0  0
    2.6654   -1.7220    0.0000 C   0  0  0  0  0  0  0  0  0  0  0  0
    3.5975   -0.3028    0.0000 C   0  0  0  0  0  0  0  0  0  0  0  0
    9.2722    1.1386    0.0000 C   0  0  0  0  0  0  0  0  0  0  0  0
    8.4936    2.4754    0.0000 C   0  0  0  0  0  0  0  0  0  0  0  0
    9.2722    2.0337    0.0000 C   0  0  0  0  0  0  0  0  0  0  0  0
    2.2237    0.0899    0.0000 C   0  0  0  0  0  0  0  0  0  0  0  0
    1.6500    0.6829    0.0000 C   0  0  0  0  0  0  0  0  0  0  0  0
    0.0000    0.0000    0.0000 H   0  0  0  0  0  0  0  0  0  0  0  0
    0.0000    0.0000    0.0000 H   0  0  0  0  0  0  0  0  0  0  0  0
    0.0000    0.0000    0.0000 H   0  0  0  0  0  0  0  0  0  0  0  0
    0.0000    0.0000    0.0000 H   0  0  0  0  0  0  0  0  0  0  0  0
    0.0000    0.0000    0.0000 H   0  0  0  0  0  0  0  0  0  0  0  0
    0.0000    0.0000    0.0000 H   0  0  0  0  0  0  0  0  0  0  0  0
    0.0000    0.0000    0.0000 H   0  0  0  0  0  0  0  0  0  0  0  0
    0.0000    0.0000    0.0000 H   0  0  0  0  0  0  0  0  0  0  0  0
    0.0000    0.0000    0.0000 H   0  0  0  0  0  0  0  0  0  0  0  0
    0.0000    0.0000    0.0000 H   0  0  0  0  0  0  0  0  0  0  0  0
    0.0000    0.0000    0.0000 H   0  0  0  0  0  0  0  0  0  0  0  0
    0.0000    0.0000    0.0000 H   0  0  0  0  0  0  0  0  0  0  0  0
    0.0000    0.0000    0.0000 H   0  0  0  0  0  0  0  0  0  0  0  0
    0.0000    0.0000    0.0000 H   0  0  0  0  0  0  0  0  0  0  0  0
    0.0000    0.0000    0.0000 H   0  0  0  0  0  0  0  0  0  0  0  0
    0.0000    0.0000    0.0000 H   0  0  0  0  0  0  0  0  0  0  0  0
    0.0000    0.0000    0.0000 H   0  0  0  0  0  0  0  0  0  0  0  0
    0.0000    0.0000    0.0000 H   0  0  0  0  0  0  0  0  0  0  0  0
    0.0000    0.0000    0.0000 H   0  0  0  0  0  0  0  0  0  0  0  0
    0.0000    0.0000    0.0000 H   0  0  0  0  0  0  0  0  0  0  0  0
    0.0000    0.0000    0.0000 H   0  0  0  0  0  0  0  0  0  0  0  0
    0.0000    0.0000    0.0000 H   0  0  0  0  0  0  0  0  0  0  0  0
    0.0000    0.0000    0.0000 H   0  0  0  0  0  0  0  0  0  0  0  0
    0.0000    0.0000    0.0000 H   0  0  0  0  0  0  0  0  0  0  0  0
    0.0000    0.0000    0.0000 H   0  0  0  0  0  0  0  0  0  0  0  0
    0.0000    0.0000    0.0000 H   0  0  0  0  0  0  0  0  0  0  0  0
    0.0000    0.0000    0.0000 H   0  0  0  0  0  0  0  0  0  0  0  0
    0.0000    0.0000    0.0000 H   0  0  0  0  0  0  0  0  0  0  0  0
    0.0000    0.0000    0.0000 H   0  0  0  0  0  0  0  0  0  0  0  0
    0.0000    0.0000    0.0000 H   0  0  0  0  0  0  0  0  0  0  0  0
    0.0000    0.0000    0.0000 H   0  0  0  0  0  0  0  0  0  0  0  0
    0.0000    0.0000    0.0000 H   0  0  0  0  0  0  0  0  0  0  0  0
    0.0000    0.0000    0.0000 H   0  0  0  0  0  0  0  0  0  0  0  0
    0.0000    0.0000    0.0000 H   0  0  0  0  0  0  0  0  0  0  0  0
    0.0000    0.0000    0.0000 H   0  0  0  0  0  0  0  0  0  0  0  0
 14  1  1  1
  2 11  1  0
  2 21  1  0
  3 13  1  0
  3 21  1  0
 17  4  1  6
  5 22  2  0
  6 31  1  0
  6 35  1  0
  7 34  2  0
  8 35  2  0
  9 10  1  0
  9 11  1  0
  9 16  1  0
  9 20  1  6
 10 12  1  0
 10 15  1  0
 11 13  1  0
 11 22  1  6
 12 14  1  0
 12 19  1  0
 13 15  1  0
 14 17  1  0
 14 18  1  0
 16 17  1  0
 18 24  1  0
 18 27  1  6
 18 28  1  0
 19 23  1  0
 21 25  1  0
 21 26  1  0
 22 31  1  0
 23 24  1  0
 24 32  2  0
 25 29  1  0
 26 30  1  0
 28 33  2  0
 29 30  1  0
 32 34  1  0
 33 34  1  0
 35 36  1  0
  4 37  1  0
 10 38  1  1
 12 39  1  6
 13 40  1  6
 15 41  1  0
 15 42  1  0
 16 43  1  0
 16 44  1  0
 17 45  1  0
 19 46  1  0
 19 47  1  0
 20 48  1  0
 20 49  1  0
 20 50  1  0
 23 51  1  0
 23 52  1  0
 25 53  1  0
 25 54  1  0
 26 55  1  0
 26 56  1  0
 27 57  1  0
 27 58  1  0
 27 59  1  0
 28 60  1  0
 29 61  1  0
 29 62  1  0
 30 63  1  0
 30 64  1  0
 31 65  1  0
 31 66  1  0
 32 67  1  0
 33 68  1  0
 36 69  1  0
 36 70  1  0
 36 71  1  0
M  END
>  <ALOGPS_LOGP>  (1) 
3.16

>  <ALOGPS_LOGS>  (1) 
-4.81

>  <ALOGPS_SOLUBILITY>  (1) 
7.74e-03 g/l

>  <DATABASE_ID>  (1) 
DB00288

>  <DATABASE_NAME>  (1) 
drugbank

>  <DRUGBANK_ID>  (1) 
DB00288

>  <DRUG_GROUPS>  (1) 
approved

>  <EXACT_MASS>  (1) 
502.236681679

>  <FORMULA>  (1) 
C28H35FO7

>  <GENERIC_NAME>  (1) 
Amcinonide

>  <INCHI_IDENTIFIER>  (1) 
InChI=1S/C28H35FO7/c1-16(30)34-15-22(33)28-23(35-26(36-28)9-4-5-10-26)13-20-19-7-6-17-12-18(31)8-11-24(17,2)27(19,29)21(32)14-25(20,28)3/h8,11-12,19-21,23,32H,4-7,9-10,13-15H2,1-3H3/t19-,20-,21-,23+,24-,25-,27-,28+/m0/s1

>  <INCHI_KEY>  (1) 
ILKJAFIWWBXGDU-MOGDOJJUSA-N

>  <INTERNATIONAL_BRANDS>  (1) 
Mycoderm; Penticort; Visderm

>  <JCHEM_ACCEPTOR_COUNT>  (1) 
6

>  <JCHEM_AVERAGE_POLARIZABILITY>  (1) 
52.22563069741637

>  <JCHEM_BIOAVAILABILITY>  (1) 
1

>  <JCHEM_DONOR_COUNT>  (1) 
1

>  <JCHEM_FORMAL_CHARGE>  (1) 
0

>  <JCHEM_GHOSE_FILTER>  (1) 
0

>  <JCHEM_IUPAC>  (1) 
2-[(1'S,2'S,4'R,8'S,9'S,11'S,12'R,13'S)-12'-fluoro-11'-hydroxy-9',13'-dimethyl-16'-oxo-5',7'-dioxaspiro[cyclopentane-1,6'-pentacyclo[10.8.0.0²,⁹.0⁴,⁸.0¹³,¹⁸]icosane]-14',17'-dien-8'-yl]-2-oxoethyl acetate

>  <JCHEM_LOGP>  (1) 
3.195263625666665

>  <JCHEM_MDDR_LIKE_RULE>  (1) 
0

>  <JCHEM_NUMBER_OF_RINGS>  (1) 
6

>  <JCHEM_PHYSIOLOGICAL_CHARGE>  (1) 
0

>  <JCHEM_PKA>  (1) 
15.463363079035915

>  <JCHEM_PKA_STRONGEST_ACIDIC>  (1) 
13.63389907521612

>  <JCHEM_PKA_STRONGEST_BASIC>  (1) 
-3.3934422030309666

>  <JCHEM_POLAR_SURFACE_AREA>  (1) 
99.13

>  <JCHEM_REFRACTIVITY>  (1) 
127.87669999999999

>  <JCHEM_ROTATABLE_BOND_COUNT>  (1) 
4

>  <JCHEM_RULE_OF_FIVE>  (1) 
0

>  <JCHEM_TRADITIONAL_IUPAC>  (1) 
amcinonide

>  <JCHEM_VEBER_RULE>  (1) 
0

>  <MOLECULAR_WEIGHT>  (1) 
502.5717

>  <PRODUCTS>  (1) 
Amcinonide; Cyclocort; Cyclocort Crm 0.1%; Cyclocort Lot 0.1%; Cyclocort Ont 0.1%; Ratio-amcinonide; Taro-amcinonide

>  <SECONDARY_ACCESSION_NUMBERS>  (1) 
APRD00788

>  <SMILES>  (1) 
[H][C@@]12C[C@@]3([H])[C@]4([H])CCC5=CC(=O)C=C[C@]5(C)[C@@]4(F)[C@@H](O)C[C@]3(C)[C@@]1(OC1(CCCC1)O2)C(=O)COC(C)=O

>  <SYNONYMS>  (1) 
Triamcinolonacetatcyclopentanonid

$$$$
