912
     RDKit          2D

 69 71  0  0  1  0  0  0  0  0999 V2000
    5.9370   -0.0495    0.0000 O   0  0  0  0  0  0  0  0  0  0  0  0
    3.0791    2.4256    0.0000 O   0  0  0  0  0  0  0  0  0  0  0  0
    5.2224    3.6631    0.0000 O   0  0  0  0  0  0  0  0  0  0  0  0
    3.7935    3.6631    0.0000 O   0  0  0  0  0  0  0  0  0  0  0  0
    7.3659   -2.5246    0.0000 N   0  0  0  0  0  0  0  0  0  0  0  0
    5.2224   -1.2870    0.0000 N   0  0  0  0  0  0  0  0  0  0  0  0
    6.6515   -2.9371    0.0000 C   0  0  0  0  0  0  0  0  0  0  0  0
    8.0804   -2.9371    0.0000 C   0  0  0  0  0  0  0  0  0  0  0  0
    6.6515   -3.7621    0.0000 C   0  0  0  0  0  0  0  0  0  0  0  0
    8.0804   -3.7621    0.0000 C   0  0  0  0  0  0  0  0  0  0  0  0
    7.3659   -4.1746    0.0000 C   0  0  0  0  0  0  0  0  0  0  0  0
    5.9370   -1.6995    0.0000 C   0  0  0  0  0  0  0  0  0  0  0  0
    7.3659   -1.6995    0.0000 C   0  0  0  0  0  0  0  0  0  0  0  0
    6.6515   -1.2870    0.0000 C   0  0  0  0  0  0  0  0  0  0  0  0
    5.9370   -2.5246    0.0000 C   0  0  0  0  0  0  0  0  0  0  0  0
    5.2224   -2.9371    0.0000 C   0  0  0  0  0  0  0  0  0  0  0  0
    8.0804   -1.2870    0.0000 C   0  0  0  0  0  0  0  0  0  0  0  0
    6.6515   -0.4620    0.0000 C   0  0  0  0  0  0  0  0  0  0  0  0
    5.2224   -3.7621    0.0000 C   0  0  0  0  0  0  0  0  0  0  0  0
    4.5080   -2.5246    0.0000 C   0  0  0  0  0  0  0  0  0  0  0  0
    8.0804   -0.4620    0.0000 C   0  0  0  0  0  0  0  0  0  0  0  0
    7.3659   -0.0495    0.0000 C   0  0  0  0  0  0  0  0  0  0  0  0
    5.2224   -0.4620    0.0000 C   0  0  0  0  0  0  0  0  0  0  0  0
    4.5080   -0.0495    0.0000 C   0  0  0  0  0  0  0  0  0  0  0  0
    4.5080    0.7755    0.0000 C   0  0  0  0  0  0  0  0  0  0  0  0
    3.7935    1.1880    0.0000 C   0  0  0  0  0  0  0  0  0  0  0  0
    5.2224    1.1880    0.0000 C   0  0  0  0  0  0  0  0  0  0  0  0
    3.7935    2.0130    0.0000 C   0  0  0  0  0  0  0  0  0  0  0  0
    5.2224    2.0130    0.0000 C   0  0  0  0  0  0  0  0  0  0  0  0
    4.5080    2.4256    0.0000 C   0  0  0  0  0  0  0  0  0  0  0  0
    4.5080    3.2506    0.0000 C   0  0  0  0  0  0  0  0  0  0  0  0
    2.3645    2.0130    0.0000 C   0  0  0  0  0  0  0  0  0  0  0  0
    1.6500    2.4256    0.0000 C   0  0  0  0  0  0  0  0  0  0  0  0
    0.0000    0.0000    0.0000 H   0  0  0  0  0  0  0  0  0  0  0  0
    0.0000    0.0000    0.0000 H   0  0  0  0  0  0  0  0  0  0  0  0
    0.0000    0.0000    0.0000 H   0  0  0  0  0  0  0  0  0  0  0  0
    0.0000    0.0000    0.0000 H   0  0  0  0  0  0  0  0  0  0  0  0
    0.0000    0.0000    0.0000 H   0  0  0  0  0  0  0  0  0  0  0  0
    0.0000    0.0000    0.0000 H   0  0  0  0  0  0  0  0  0  0  0  0
    0.0000    0.0000    0.0000 H   0  0  0  0  0  0  0  0  0  0  0  0
    0.0000    0.0000    0.0000 H   0  0  0  0  0  0  0  0  0  0  0  0
    0.0000    0.0000    0.0000 H   0  0  0  0  0  0  0  0  0  0  0  0
    0.0000    0.0000    0.0000 H   0  0  0  0  0  0  0  0  0  0  0  0
    0.0000    0.0000    0.0000 H   0  0  0  0  0  0  0  0  0  0  0  0
    0.0000    0.0000    0.0000 H   0  0  0  0  0  0  0  0  0  0  0  0
    0.0000    0.0000    0.0000 H   0  0  0  0  0  0  0  0  0  0  0  0
    0.0000    0.0000    0.0000 H   0  0  0  0  0  0  0  0  0  0  0  0
    0.0000    0.0000    0.0000 H   0  0  0  0  0  0  0  0  0  0  0  0
    0.0000    0.0000    0.0000 H   0  0  0  0  0  0  0  0  0  0  0  0
    0.0000    0.0000    0.0000 H   0  0  0  0  0  0  0  0  0  0  0  0
    0.0000    0.0000    0.0000 H   0  0  0  0  0  0  0  0  0  0  0  0
    0.0000    0.0000    0.0000 H   0  0  0  0  0  0  0  0  0  0  0  0
    0.0000    0.0000    0.0000 H   0  0  0  0  0  0  0  0  0  0  0  0
    0.0000    0.0000    0.0000 H   0  0  0  0  0  0  0  0  0  0  0  0
    0.0000    0.0000    0.0000 H   0  0  0  0  0  0  0  0  0  0  0  0
    0.0000    0.0000    0.0000 H   0  0  0  0  0  0  0  0  0  0  0  0
    0.0000    0.0000    0.0000 H   0  0  0  0  0  0  0  0  0  0  0  0
    0.0000    0.0000    0.0000 H   0  0  0  0  0  0  0  0  0  0  0  0
    0.0000    0.0000    0.0000 H   0  0  0  0  0  0  0  0  0  0  0  0
    0.0000    0.0000    0.0000 H   0  0  0  0  0  0  0  0  0  0  0  0
    0.0000    0.0000    0.0000 H   0  0  0  0  0  0  0  0  0  0  0  0
    0.0000    0.0000    0.0000 H   0  0  0  0  0  0  0  0  0  0  0  0
    0.0000    0.0000    0.0000 H   0  0  0  0  0  0  0  0  0  0  0  0
    0.0000    0.0000    0.0000 H   0  0  0  0  0  0  0  0  0  0  0  0
    0.0000    0.0000    0.0000 H   0  0  0  0  0  0  0  0  0  0  0  0
    0.0000    0.0000    0.0000 H   0  0  0  0  0  0  0  0  0  0  0  0
    0.0000    0.0000    0.0000 H   0  0  0  0  0  0  0  0  0  0  0  0
    0.0000    0.0000    0.0000 H   0  0  0  0  0  0  0  0  0  0  0  0
    0.0000    0.0000    0.0000 H   0  0  0  0  0  0  0  0  0  0  0  0
  1 23  2  0
  2 28  1  0
  2 32  1  0
  3 31  1  0
  4 31  2  0
  5  7  1  0
  5  8  1  0
  5 13  1  0
 12  6  1  6
  6 23  1  0
  7  9  1  0
  8 10  1  0
  9 11  1  0
 10 11  1  0
 12 14  1  0
 12 15  1  0
 13 14  1  0
 13 17  2  0
 14 18  2  0
 15 16  1  0
 16 19  1  0
 16 20  1  0
 17 21  1  0
 18 22  1  0
 21 22  2  0
 23 24  1  0
 24 25  1  0
 25 26  2  0
 25 27  1  0
 26 28  1  0
 27 29  2  0
 28 30  2  0
 29 30  1  0
 30 31  1  0
 32 33  1  0
  3 34  1  0
  6 35  1  0
  7 36  1  0
  7 37  1  0
  8 38  1  0
  8 39  1  0
  9 40  1  0
  9 41  1  0
 10 42  1  0
 10 43  1  0
 11 44  1  0
 11 45  1  0
 12 46  1  0
 15 47  1  0
 15 48  1  0
 16 49  1  0
 17 50  1  0
 18 51  1  0
 19 52  1  0
 19 53  1  0
 19 54  1  0
 20 55  1  0
 20 56  1  0
 20 57  1  0
 21 58  1  0
 22 59  1  0
 24 60  1  0
 24 61  1  0
 26 62  1  0
 27 63  1  0
 29 64  1  0
 32 65  1  0
 32 66  1  0
 33 67  1  0
 33 68  1  0
 33 69  1  0
M  END
>  <ALOGPS_LOGP>  (1) 
5.05

>  <ALOGPS_LOGS>  (1) 
-5.19

>  <ALOGPS_SOLUBILITY>  (1) 
2.94e-03 g/l

>  <DATABASE_ID>  (1) 
DB00912

>  <DATABASE_NAME>  (1) 
drugbank

>  <DRUGBANK_ID>  (1) 
DB00912

>  <DRUG_GROUPS>  (1) 
approved; investigational

>  <EXACT_MASS>  (1) 
452.26750765

>  <FORMULA>  (1) 
C27H36N2O4

>  <GENERIC_NAME>  (1) 
Repaglinide

>  <INCHI_IDENTIFIER>  (1) 
InChI=1S/C27H36N2O4/c1-4-33-25-17-20(12-13-22(25)27(31)32)18-26(30)28-23(16-19(2)3)21-10-6-7-11-24(21)29-14-8-5-9-15-29/h6-7,10-13,17,19,23H,4-5,8-9,14-16,18H2,1-3H3,(H,28,30)(H,31,32)/t23-/m0/s1

>  <INCHI_KEY>  (1) 
FAEKWTJYAYMJKF-QHCPKHFHSA-N

>  <INTERNATIONAL_BRANDS>  (1) 
GlucoNorm

>  <JCHEM_ACCEPTOR_COUNT>  (1) 
5

>  <JCHEM_AVERAGE_POLARIZABILITY>  (1) 
51.48599953789469

>  <JCHEM_BIOAVAILABILITY>  (1) 
1

>  <JCHEM_DONOR_COUNT>  (1) 
2

>  <JCHEM_FORMAL_CHARGE>  (1) 
0

>  <JCHEM_GHOSE_FILTER>  (1) 
0

>  <JCHEM_IUPAC>  (1) 
2-ethoxy-4-({[(1S)-3-methyl-1-[2-(piperidin-1-yl)phenyl]butyl]carbamoyl}methyl)benzoic acid

>  <JCHEM_LOGP>  (1) 
3.946804454827218

>  <JCHEM_MDDR_LIKE_RULE>  (1) 
1

>  <JCHEM_NUMBER_OF_RINGS>  (1) 
3

>  <JCHEM_PHYSIOLOGICAL_CHARGE>  (1) 
-1

>  <JCHEM_PKA>  (1) 
15.519066522631515

>  <JCHEM_PKA_STRONGEST_ACIDIC>  (1) 
3.6754997808978898

>  <JCHEM_PKA_STRONGEST_BASIC>  (1) 
4.8184755016238165

>  <JCHEM_POLAR_SURFACE_AREA>  (1) 
78.87

>  <JCHEM_REFRACTIVITY>  (1) 
131.8281

>  <JCHEM_ROTATABLE_BOND_COUNT>  (1) 
10

>  <JCHEM_RULE_OF_FIVE>  (1) 
1

>  <JCHEM_TRADITIONAL_IUPAC>  (1) 
repaglinide

>  <JCHEM_VEBER_RULE>  (1) 
0

>  <MOLECULAR_WEIGHT>  (1) 
452.5857

>  <PRODUCTS>  (1) 
Act Repaglinide; Apo-repaglinide; Auro-repaglinide; Enyglid; Gluconorm 0.5mg; Gluconorm 1.0mg; Gluconorm 2.0mg; Mylan-repaglinide; Novonorm; PMS-repaglinide; PrandiMet; Prandin; Repaglinide; Repaglinide Accord; Repaglinide Krka; Repaglinide and Metformin Hydrochloride; Sandoz Repaglinide

>  <SECONDARY_ACCESSION_NUMBERS>  (1) 
APRD00439

>  <SMILES>  (1) 
CCOC1=C(C=CC(CC(=O)N[C@@H](CC(C)C)C2=CC=CC=C2N2CCCCC2)=C1)C(O)=O

>  <SYNONYMS>  (1) 
Repaglinida; Repaglinidum

$$$$
