
     RDKit          2D

 50 53  0  0  0  0  0  0  0  0999 V2000
   19.6254   -0.1331    0.0000 S   0  0  0  0  0  0  0  0  0  0  0  0
   18.9109   -0.5456    0.0000 C   0  0  0  0  0  0  0  0  0  0  0  0
   18.9109   -1.3706    0.0000 N   0  0  0  0  0  0  0  0  0  0  0  0
   19.6254   -1.7831    0.0000 C   0  0  0  0  0  0  0  0  0  0  0  0
   20.3399   -1.3706    0.0000 C   0  0  0  0  0  0  0  0  0  0  0  0
   20.3399   -0.5456    0.0000 C   0  0  0  0  0  0  0  0  0  0  0  0
   18.0859   -0.5456    0.0000 C   0  0  0  0  0  0  0  0  0  0  0  0
   18.0859   -1.3706    0.0000 C   0  0  0  0  0  0  0  0  0  0  0  0
   19.6254   -2.6081    0.0000 C   0  0  0  0  0  0  0  0  0  0  0  0
   18.9109   -3.0206    0.0000 O   0  0  0  0  0  0  0  0  0  0  0  0
   20.3399   -3.0206    0.0000 O   0  0  0  0  0  0  0  0  0  0  0  0
   17.3715   -0.1331    0.0000 N   0  0  0  0  0  0  0  0  0  0  0  0
   16.6570   -0.5456    0.0000 C   0  0  0  0  0  0  0  0  0  0  0  0
   15.9425   -0.1331    0.0000 C   0  0  0  0  0  0  0  0  0  0  0  0
   16.6570   -1.3706    0.0000 O   0  0  0  0  0  0  0  0  0  0  0  0
   15.9425    0.6919    0.0000 N   0  0  0  0  0  0  0  0  0  0  0  0
   16.6570    1.1044    0.0000 O   0  0  0  0  0  0  0  0  0  0  0  0
   16.6570    1.9294    0.0000 C   0  0  0  0  0  0  0  0  0  0  0  0
   14.4434   -0.2906    0.0000 N   0  0  0  0  0  0  0  0  0  0  0  0
   13.9585   -0.9581    0.0000 C   0  0  0  0  0  0  0  0  0  0  0  0
   14.4434   -1.6255    0.0000 S   0  0  0  0  0  0  0  0  0  0  0  0
   15.2281   -1.3705    0.0000 C   0  0  0  0  0  0  0  0  0  0  0  0
   15.2281   -0.5456    0.0000 C   0  0  0  0  0  0  0  0  0  0  0  0
   13.1335   -0.9581    0.0000 N   0  0  0  0  0  0  0  0  0  0  0  0
   17.5026   -1.9540    0.0000 O   0  0  0  0  0  0  0  0  0  0  0  0
   21.0544   -1.7831    0.0000 C   0  0  0  0  0  0  0  0  0  0  0  0
   21.7689   -1.3706    0.0000 S   0  0  0  0  0  0  0  0  0  0  0  0
   23.2680   -1.5282    0.0000 N   0  0  0  0  0  0  0  0  0  0  0  0
   22.4833   -1.7831    0.0000 C   0  0  0  0  0  0  0  0  0  0  0  0
   22.4833   -2.6081    0.0000 N   0  0  0  0  0  0  0  0  0  0  0  0
   23.2680   -2.8630    0.0000 N   0  0  0  0  0  0  0  0  0  0  0  0
   23.7529   -2.1956    0.0000 N   0  0  0  0  0  0  0  0  0  0  0  0
   23.4815   -0.7313    0.0000 C   0  0  0  0  0  0  0  0  0  0  0  0
    0.0000    0.0000    0.0000 H   0  0  0  0  0  0  0  0  0  0  0  0
    0.0000    0.0000    0.0000 H   0  0  0  0  0  0  0  0  0  0  0  0
    0.0000    0.0000    0.0000 H   0  0  0  0  0  0  0  0  0  0  0  0
    0.0000    0.0000    0.0000 H   0  0  0  0  0  0  0  0  0  0  0  0
    0.0000    0.0000    0.0000 H   0  0  0  0  0  0  0  0  0  0  0  0
    0.0000    0.0000    0.0000 H   0  0  0  0  0  0  0  0  0  0  0  0
    0.0000    0.0000    0.0000 H   0  0  0  0  0  0  0  0  0  0  0  0
    0.0000    0.0000    0.0000 H   0  0  0  0  0  0  0  0  0  0  0  0
    0.0000    0.0000    0.0000 H   0  0  0  0  0  0  0  0  0  0  0  0
    0.0000    0.0000    0.0000 H   0  0  0  0  0  0  0  0  0  0  0  0
    0.0000    0.0000    0.0000 H   0  0  0  0  0  0  0  0  0  0  0  0
    0.0000    0.0000    0.0000 H   0  0  0  0  0  0  0  0  0  0  0  0
    0.0000    0.0000    0.0000 H   0  0  0  0  0  0  0  0  0  0  0  0
    0.0000    0.0000    0.0000 H   0  0  0  0  0  0  0  0  0  0  0  0
    0.0000    0.0000    0.0000 H   0  0  0  0  0  0  0  0  0  0  0  0
    0.0000    0.0000    0.0000 H   0  0  0  0  0  0  0  0  0  0  0  0
    0.0000    0.0000    0.0000 H   0  0  0  0  0  0  0  0  0  0  0  0
  1  2  1  0
  2  3  1  0
  3  4  1  0
  4  5  2  0
  5  6  1  0
  1  6  1  0
  2  7  1  0
  7  8  1  0
  8  3  1  0
  4  9  1  0
  9 10  2  0
  9 11  1  0
  7 12  1  1
 12 13  1  0
 13 14  1  0
 14 23  1  0
 13 15  2  0
 14 16  2  0
 16 17  1  0
 17 18  1  0
 19 20  2  0
 20 21  1  0
 21 22  1  0
 22 23  2  0
 19 23  1  0
 20 24  1  0
  8 25  2  0
  5 26  1  0
 26 27  1  0
 27 29  1  0
 28 29  1  0
 29 30  2  0
 30 31  1  0
 31 32  2  0
 28 32  1  0
 28 33  1  0
  2 34  1  6
  6 35  1  0
  6 36  1  0
  7 37  1  0
 11 38  1  0
 12 39  1  0
 18 40  1  0
 18 41  1  0
 18 42  1  0
 22 43  1  0
 24 44  1  0
 24 45  1  0
 26 46  1  0
 26 47  1  0
 33 48  1  0
 33 49  1  0
 33 50  1  0
M  END
>  <ALOGPS_LOGP>  (1) 
-0.13

>  <ALOGPS_LOGS>  (1) 
-3.06

>  <ALOGPS_SOLUBILITY>  (1) 
4.46e-01 g/l

>  <DATABASE_ID>  (1) 
DB00267

>  <DATABASE_NAME>  (1) 
drugbank

>  <DRUGBANK_ID>  (1) 
DB00267

>  <DRUG_GROUPS>  (1) 
approved

>  <EXACT_MASS>  (1) 
511.051476769

>  <FORMULA>  (1) 
C16H17N9O5S3

>  <GENERIC_NAME>  (1) 
Cefmenoxime

>  <INCHI_IDENTIFIER>  (1) 
InChI=1S/C16H17N9O5S3/c1-24-16(20-22-23-24)33-4-6-3-31-13-9(12(27)25(13)10(6)14(28)29)19-11(26)8(21-30-2)7-5-32-15(17)18-7/h5,9,13H,3-4H2,1-2H3,(H2,17,18)(H,19,26)(H,28,29)/b21-8-/t9-,13-/m1/s1

>  <INCHI_KEY>  (1) 
HJJDBAOLQAWBMH-YCRCPZNHSA-N

>  <INTERNATIONAL_BRANDS>  (1) 
Bestcall; Cefmax; Tacef

>  <JCHEM_ACCEPTOR_COUNT>  (1) 
11

>  <JCHEM_AVERAGE_POLARIZABILITY>  (1) 
47.03942523758754

>  <JCHEM_BIOAVAILABILITY>  (1) 
0

>  <JCHEM_DONOR_COUNT>  (1) 
3

>  <JCHEM_FORMAL_CHARGE>  (1) 
0

>  <JCHEM_GHOSE_FILTER>  (1) 
0

>  <JCHEM_IUPAC>  (1) 
(6R,7R)-7-[(2Z)-2-(2-amino-1,3-thiazol-4-yl)-2-(methoxyimino)acetamido]-3-{[(1-methyl-1H-1,2,3,4-tetrazol-5-yl)sulfanyl]methyl}-8-oxo-5-thia-1-azabicyclo[4.2.0]oct-2-ene-2-carboxylic acid

>  <JCHEM_LOGP>  (1) 
-0.8305956767772057

>  <JCHEM_MDDR_LIKE_RULE>  (1) 
1

>  <JCHEM_NUMBER_OF_RINGS>  (1) 
4

>  <JCHEM_PHYSIOLOGICAL_CHARGE>  (1) 
-1

>  <JCHEM_PKA>  (1) 
10.802941968115748

>  <JCHEM_PKA_STRONGEST_ACIDIC>  (1) 
3.036699292379528

>  <JCHEM_PKA_STRONGEST_BASIC>  (1) 
4.14174647538487

>  <JCHEM_POLAR_SURFACE_AREA>  (1) 
190.81

>  <JCHEM_REFRACTIVITY>  (1) 
133.5115

>  <JCHEM_ROTATABLE_BOND_COUNT>  (1) 
8

>  <JCHEM_RULE_OF_FIVE>  (1) 
0

>  <JCHEM_TRADITIONAL_IUPAC>  (1) 
cefmenoxime

>  <JCHEM_VEBER_RULE>  (1) 
0

>  <MOLECULAR_WEIGHT>  (1) 
511.558

>  <SALTS>  (1) 
Cefmenoxime hydrochloride

>  <SECONDARY_ACCESSION_NUMBERS>  (1) 
APRD00851

>  <SMILES>  (1) 
[H][C@]12SCC(CSC3=NN=NN3C)=C(N1C(=O)[C@H]2NC(=O)C(=N/OC)\C1=CSC(N)=N1)C(O)=O

>  <SYNONYMS>  (1) 
Cefmenoxima; Cefmenoximum

$$$$
