635
     RDKit          2D

 52 55  0  0  1  0  0  0  0  0999 V2000
    6.6263    1.5366    0.0000 O   0  0  0  0  0  0  0  0  0  0  0  0
    3.9559    0.9126    0.0000 O   0  0  0  0  0  0  0  0  0  0  0  0
    7.4634    2.0559    0.0000 O   0  0  0  0  0  0  0  0  0  0  0  0
    8.9696    1.3822    0.0000 O   0  0  0  0  0  0  0  0  0  0  0  0
    1.6500   -2.0181    0.0000 O   0  0  0  0  0  0  0  0  0  0  0  0
    6.0993    0.5001    0.0000 C   0  0  0  0  0  0  0  0  0  0  0  0
    6.0993   -0.3249    0.0000 C   0  0  0  0  0  0  0  0  0  0  0  0
    5.3849   -0.7374    0.0000 C   0  0  0  0  0  0  0  0  0  0  0  0
    4.6703   -0.3249    0.0000 C   0  0  0  0  0  0  0  0  0  0  0  0
    6.8799    0.7515    0.0000 C   0  0  0  0  0  0  0  0  0  0  0  0
    6.8799   -0.5763    0.0000 C   0  0  0  0  0  0  0  0  0  0  0  0
    5.3849    0.9126    0.0000 C   0  0  0  0  0  0  0  0  0  0  0  0
    7.3614    0.0876    0.0000 C   0  0  0  0  0  0  0  0  0  0  0  0
    3.9196   -0.7431    0.0000 C   0  0  0  0  0  0  0  0  0  0  0  0
    5.3981   -1.5966    0.0000 C   0  0  0  0  0  0  0  0  0  0  0  0
    4.6703    0.5001    0.0000 C   0  0  0  0  0  0  0  0  0  0  0  0
    6.0993    1.3251    0.0000 C   0  0  0  0  0  0  0  0  0  0  0  0
    4.6572   -2.0321    0.0000 C   0  0  0  0  0  0  0  0  0  0  0  0
    3.9130   -1.6024    0.0000 C   0  0  0  0  0  0  0  0  0  0  0  0
    7.5482    1.2353    0.0000 C   0  0  0  0  0  0  0  0  0  0  0  0
    3.9259    0.0819    0.0000 C   0  0  0  0  0  0  0  0  0  0  0  0
    3.1550   -0.2777    0.0000 C   0  0  0  0  0  0  0  0  0  0  0  0
    3.1413   -2.0559    0.0000 C   0  0  0  0  0  0  0  0  0  0  0  0
    8.3013    0.8984    0.0000 C   0  0  0  0  0  0  0  0  0  0  0  0
    2.3729   -0.7132    0.0000 C   0  0  0  0  0  0  0  0  0  0  0  0
    2.3660   -1.6083    0.0000 C   0  0  0  0  0  0  0  0  0  0  0  0
    0.0000    0.0000    0.0000 H   0  0  0  0  0  0  0  0  0  0  0  0
    0.0000    0.0000    0.0000 H   0  0  0  0  0  0  0  0  0  0  0  0
    0.0000    0.0000    0.0000 H   0  0  0  0  0  0  0  0  0  0  0  0
    0.0000    0.0000    0.0000 H   0  0  0  0  0  0  0  0  0  0  0  0
    0.0000    0.0000    0.0000 H   0  0  0  0  0  0  0  0  0  0  0  0
    0.0000    0.0000    0.0000 H   0  0  0  0  0  0  0  0  0  0  0  0
    0.0000    0.0000    0.0000 H   0  0  0  0  0  0  0  0  0  0  0  0
    0.0000    0.0000    0.0000 H   0  0  0  0  0  0  0  0  0  0  0  0
    0.0000    0.0000    0.0000 H   0  0  0  0  0  0  0  0  0  0  0  0
    0.0000    0.0000    0.0000 H   0  0  0  0  0  0  0  0  0  0  0  0
    0.0000    0.0000    0.0000 H   0  0  0  0  0  0  0  0  0  0  0  0
    0.0000    0.0000    0.0000 H   0  0  0  0  0  0  0  0  0  0  0  0
    0.0000    0.0000    0.0000 H   0  0  0  0  0  0  0  0  0  0  0  0
    0.0000    0.0000    0.0000 H   0  0  0  0  0  0  0  0  0  0  0  0
    0.0000    0.0000    0.0000 H   0  0  0  0  0  0  0  0  0  0  0  0
    0.0000    0.0000    0.0000 H   0  0  0  0  0  0  0  0  0  0  0  0
    0.0000    0.0000    0.0000 H   0  0  0  0  0  0  0  0  0  0  0  0
    0.0000    0.0000    0.0000 H   0  0  0  0  0  0  0  0  0  0  0  0
    0.0000    0.0000    0.0000 H   0  0  0  0  0  0  0  0  0  0  0  0
    0.0000    0.0000    0.0000 H   0  0  0  0  0  0  0  0  0  0  0  0
    0.0000    0.0000    0.0000 H   0  0  0  0  0  0  0  0  0  0  0  0
    0.0000    0.0000    0.0000 H   0  0  0  0  0  0  0  0  0  0  0  0
    0.0000    0.0000    0.0000 H   0  0  0  0  0  0  0  0  0  0  0  0
    0.0000    0.0000    0.0000 H   0  0  0  0  0  0  0  0  0  0  0  0
    0.0000    0.0000    0.0000 H   0  0  0  0  0  0  0  0  0  0  0  0
    0.0000    0.0000    0.0000 H   0  0  0  0  0  0  0  0  0  0  0  0
 10  1  1  6
  2 16  2  0
  3 20  2  0
  4 24  1  0
  5 26  2  0
  6  7  1  0
  6 10  1  0
  6 12  1  0
  6 17  1  1
  7  8  1  0
  7 11  1  0
  8  9  1  0
  8 15  1  0
  9 14  1  0
  9 16  1  0
 10 13  1  0
 10 20  1  0
 11 13  1  0
 12 16  1  0
 14 19  1  0
 14 21  1  1
 14 22  1  0
 15 18  1  0
 18 19  1  0
 19 23  2  0
 20 24  1  0
 22 25  2  0
 23 26  1  0
 25 26  1  0
  1 27  1  0
  4 28  1  0
  7 29  1  6
  8 30  1  1
  9 31  1  6
 11 32  1  0
 11 33  1  0
 12 34  1  0
 12 35  1  0
 13 36  1  0
 13 37  1  0
 15 38  1  0
 15 39  1  0
 17 40  1  0
 17 41  1  0
 17 42  1  0
 18 43  1  0
 18 44  1  0
 21 45  1  0
 21 46  1  0
 21 47  1  0
 22 48  1  0
 23 49  1  0
 24 50  1  0
 24 51  1  0
 25 52  1  0
M  END
>  <ALOGPS_LOGP>  (1) 
2.07

>  <ALOGPS_LOGS>  (1) 
-3.51

>  <ALOGPS_SOLUBILITY>  (1) 
1.11e-01 g/l

>  <DATABASE_ID>  (1) 
DB00635

>  <DATABASE_NAME>  (1) 
drugbank

>  <DRUGBANK_ID>  (1) 
DB00635

>  <DRUG_GROUPS>  (1) 
approved; vet_approved

>  <EXACT_MASS>  (1) 
358.178023942

>  <FORMULA>  (1) 
C21H26O5

>  <GENERIC_NAME>  (1) 
Prednisone

>  <INCHI_IDENTIFIER>  (1) 
InChI=1S/C21H26O5/c1-19-7-5-13(23)9-12(19)3-4-14-15-6-8-21(26,17(25)11-22)20(15,2)10-16(24)18(14)19/h5,7,9,14-15,18,22,26H,3-4,6,8,10-11H2,1-2H3/t14-,15-,18+,19-,20-,21-/m0/s1

>  <INCHI_KEY>  (1) 
XOFYZVNMUHMLCC-ZPOLXVRWSA-N

>  <INTERNATIONAL_BRANDS>  (1) 
Delta-Cortef; Meticorten; Orasone

>  <JCHEM_ACCEPTOR_COUNT>  (1) 
5

>  <JCHEM_AVERAGE_POLARIZABILITY>  (1) 
38.16717892160918

>  <JCHEM_BIOAVAILABILITY>  (1) 
1

>  <JCHEM_DONOR_COUNT>  (1) 
2

>  <JCHEM_FORMAL_CHARGE>  (1) 
0

>  <JCHEM_GHOSE_FILTER>  (1) 
1

>  <JCHEM_IUPAC>  (1) 
(1S,2R,10S,11S,14R,15S)-14-hydroxy-14-(2-hydroxyacetyl)-2,15-dimethyltetracyclo[8.7.0.0²,⁷.0¹¹,¹⁵]heptadeca-3,6-diene-5,17-dione

>  <JCHEM_LOGP>  (1) 
1.6585041779999985

>  <JCHEM_MDDR_LIKE_RULE>  (1) 
0

>  <JCHEM_NUMBER_OF_RINGS>  (1) 
4

>  <JCHEM_PHYSIOLOGICAL_CHARGE>  (1) 
0

>  <JCHEM_PKA>  (1) 
13.90447589851783

>  <JCHEM_PKA_STRONGEST_ACIDIC>  (1) 
12.57619881791117

>  <JCHEM_PKA_STRONGEST_BASIC>  (1) 
-3.32998911888836

>  <JCHEM_POLAR_SURFACE_AREA>  (1) 
91.66999999999999

>  <JCHEM_REFRACTIVITY>  (1) 
97.56809999999999

>  <JCHEM_ROTATABLE_BOND_COUNT>  (1) 
2

>  <JCHEM_RULE_OF_FIVE>  (1) 
1

>  <JCHEM_TRADITIONAL_IUPAC>  (1) 
prednisone

>  <JCHEM_VEBER_RULE>  (1) 
0

>  <MOLECULAR_WEIGHT>  (1) 
358.4281

>  <PRODUCTS>  (1) 
Alti-prednisone Tab 5mg; Apo Prednisone Tab 1mg USP; Apo Prednisone Tab 50mg; Apo Prednisone Tab 5mg; Contrast Allergy PreMed Pack; Deltasone; Deltasone 50mg; Deltasone 5mg; Jaa Prednisone Tab 1mg USP; Jaa Prednisone Tab 50mg USP; Jaa Prednisone Tab 5mg USP; Metreton Tab; Nu-prednisone; Perrigo Prednisone; PredniSONE; PredniSONE Intensol; Prednisone; Prednisone 50 Tab 50mg; Prednisone Tab 5mg; Rayos; Teva-prednisone; Winpred Tab 1mg; Winpred Tab 5mg

>  <SALTS>  (1) 
Prednisone acetate

>  <SECONDARY_ACCESSION_NUMBERS>  (1) 
APRD00340

>  <SMILES>  (1) 
[H][C@@]12CC[C@](O)(C(=O)CO)[C@@]1(C)CC(=O)[C@@]1([H])[C@@]2([H])CCC2=CC(=O)C=C[C@]12C

>  <SYNONYMS>  (1) 
1,2-Dehydrocortisone; Dehydrocortisone; Prednisona; Prednisonum

$$$$
