
     RDKit          2D

 53 56  0  0  0  0  0  0  0  0999 V2000
   -3.6241    0.0884    0.0000 C   0  0  0  0  0  0  0  0  0  0  0  0
   -4.3386   -0.3241    0.0000 C   0  0  0  0  0  0  0  0  0  0  0  0
   -4.3386   -1.1491    0.0000 C   0  0  0  0  0  0  0  0  0  0  0  0
   -3.6241   -1.5616    0.0000 C   0  0  0  0  0  0  0  0  0  0  0  0
   -2.9096   -1.1491    0.0000 C   0  0  0  0  0  0  0  0  0  0  0  0
   -2.9096   -0.3241    0.0000 C   0  0  0  0  0  0  0  0  0  0  0  0
   -2.1952    0.0884    0.0000 C   0  0  0  0  0  0  0  0  0  0  0  0
   -2.1952   -1.5616    0.0000 C   0  0  0  0  0  0  0  0  0  0  0  0
   -1.4807   -1.1491    0.0000 C   0  0  0  0  0  0  0  0  0  0  0  0
   -1.4807   -0.3241    0.0000 C   0  0  0  0  0  0  0  0  0  0  0  0
   -1.4807    1.3259    0.0000 C   0  0  0  0  0  0  0  0  0  0  0  0
   -2.1952    0.9134    0.0000 C   0  0  0  0  0  0  0  0  0  0  0  0
   -0.7662    0.0884    0.0000 N   0  0  0  0  0  0  0  0  0  0  0  0
   -0.7662    0.9134    0.0000 C   0  0  0  0  0  0  0  0  0  0  0  0
   -2.4087   -2.3585    0.0000 C   0  0  0  0  0  0  0  0  0  0  0  0
   -3.4106   -2.3585    0.0000 N   0  0  0  0  0  0  0  0  0  0  0  0
   -1.4807    2.1509    0.0000 C   0  0  0  0  0  0  0  0  0  0  0  0
   -0.0518   -0.3241    0.0000 C   0  0  0  0  0  0  0  0  0  0  0  0
   -0.7662    2.5634    0.0000 N   0  0  0  0  0  0  0  0  0  0  0  0
   -0.0518    2.1509    0.0000 C   0  0  0  0  0  0  0  0  0  0  0  0
    0.6627    2.5634    0.0000 C   0  0  0  0  0  0  0  0  0  0  0  0
    1.3772    2.1509    0.0000 C   0  0  0  0  0  0  0  0  0  0  0  0
   -2.1952    2.5634    0.0000 O   0  0  0  0  0  0  0  0  0  0  0  0
   -0.0518    1.3259    0.0000 C   0  0  0  0  0  0  0  0  0  0  0  0
    0.6627    0.9134    0.0000 O   0  0  0  0  0  0  0  0  0  0  0  0
   -3.8231   -3.0730    0.0000 C   0  0  0  0  0  0  0  0  0  0  0  0
    0.0000    0.0000    0.0000 H   0  0  0  0  0  0  0  0  0  0  0  0
    0.0000    0.0000    0.0000 H   0  0  0  0  0  0  0  0  0  0  0  0
    0.0000    0.0000    0.0000 H   0  0  0  0  0  0  0  0  0  0  0  0
    0.0000    0.0000    0.0000 H   0  0  0  0  0  0  0  0  0  0  0  0
    0.0000    0.0000    0.0000 H   0  0  0  0  0  0  0  0  0  0  0  0
    0.0000    0.0000    0.0000 H   0  0  0  0  0  0  0  0  0  0  0  0
    0.0000    0.0000    0.0000 H   0  0  0  0  0  0  0  0  0  0  0  0
    0.0000    0.0000    0.0000 H   0  0  0  0  0  0  0  0  0  0  0  0
    0.0000    0.0000    0.0000 H   0  0  0  0  0  0  0  0  0  0  0  0
    0.0000    0.0000    0.0000 H   0  0  0  0  0  0  0  0  0  0  0  0
    0.0000    0.0000    0.0000 H   0  0  0  0  0  0  0  0  0  0  0  0
    0.0000    0.0000    0.0000 H   0  0  0  0  0  0  0  0  0  0  0  0
    0.0000    0.0000    0.0000 H   0  0  0  0  0  0  0  0  0  0  0  0
    0.0000    0.0000    0.0000 H   0  0  0  0  0  0  0  0  0  0  0  0
    0.0000    0.0000    0.0000 H   0  0  0  0  0  0  0  0  0  0  0  0
    0.0000    0.0000    0.0000 H   0  0  0  0  0  0  0  0  0  0  0  0
    0.0000    0.0000    0.0000 H   0  0  0  0  0  0  0  0  0  0  0  0
    0.0000    0.0000    0.0000 H   0  0  0  0  0  0  0  0  0  0  0  0
    0.0000    0.0000    0.0000 H   0  0  0  0  0  0  0  0  0  0  0  0
    0.0000    0.0000    0.0000 H   0  0  0  0  0  0  0  0  0  0  0  0
    0.0000    0.0000    0.0000 H   0  0  0  0  0  0  0  0  0  0  0  0
    0.0000    0.0000    0.0000 H   0  0  0  0  0  0  0  0  0  0  0  0
    0.0000    0.0000    0.0000 H   0  0  0  0  0  0  0  0  0  0  0  0
    0.0000    0.0000    0.0000 H   0  0  0  0  0  0  0  0  0  0  0  0
    0.0000    0.0000    0.0000 H   0  0  0  0  0  0  0  0  0  0  0  0
    0.0000    0.0000    0.0000 H   0  0  0  0  0  0  0  0  0  0  0  0
    0.0000    0.0000    0.0000 H   0  0  0  0  0  0  0  0  0  0  0  0
  1  2  2  0
  1  6  1  0
  2  3  1  0
  3  4  2  0
  4  5  1  0
  7  6  1  0
  6  5  2  0
  5  8  1  0
  8  9  1  0
  9 10  1  0
 10 13  1  0
  7 10  1  0
 12  7  2  0
 11 12  1  0
 11 14  1  0
 13 14  1  0
  8 15  2  0
  4 16  1  0
 16 15  1  0
 11 17  1  6
 13 18  1  0
 17 19  1  0
 19 20  1  0
 20 21  1  0
 21 22  1  0
 17 23  2  0
 20 24  1  0
 24 25  1  0
 16 26  1  0
  1 27  1  0
  2 28  1  0
  3 29  1  0
  9 30  1  0
  9 31  1  0
 10 32  1  1
 11 33  1  0
 12 34  1  0
 14 35  1  0
 14 36  1  0
 15 37  1  0
 18 38  1  0
 18 39  1  0
 18 40  1  0
 19 41  1  0
 20 42  1  0
 21 43  1  0
 21 44  1  0
 22 45  1  0
 22 46  1  0
 22 47  1  0
 24 48  1  0
 24 49  1  0
 25 50  1  0
 26 51  1  0
 26 52  1  0
 26 53  1  0
M  END
>  <ALOGPS_LOGP>  (1) 
2.22

>  <ALOGPS_LOGS>  (1) 
-3.20

>  <ALOGPS_SOLUBILITY>  (1) 
2.24e-01 g/l

>  <DATABASE_ID>  (1) 
DB00247

>  <DATABASE_NAME>  (1) 
drugbank

>  <DRUGBANK_ID>  (1) 
DB00247

>  <DRUG_GROUPS>  (1) 
approved

>  <EXACT_MASS>  (1) 
353.210327123

>  <FORMULA>  (1) 
C21H27N3O2

>  <GENERIC_NAME>  (1) 
Methysergide

>  <INCHI_IDENTIFIER>  (1) 
InChI=1S/C21H27N3O2/c1-4-15(12-25)22-21(26)14-8-17-16-6-5-7-18-20(16)13(10-23(18)2)9-19(17)24(3)11-14/h5-8,10,14-15,19,25H,4,9,11-12H2,1-3H3,(H,22,26)/t14-,15?,19-/m1/s1

>  <INCHI_KEY>  (1) 
KPJZHOPZRAFDTN-NQUBZZJWSA-N

>  <INTERNATIONAL_BRANDS>  (1) 
Deseril; Desernil

>  <JCHEM_ACCEPTOR_COUNT>  (1) 
3

>  <JCHEM_AVERAGE_POLARIZABILITY>  (1) 
40.406638307352964

>  <JCHEM_BIOAVAILABILITY>  (1) 
1

>  <JCHEM_DONOR_COUNT>  (1) 
2

>  <JCHEM_FORMAL_CHARGE>  (1) 
0

>  <JCHEM_GHOSE_FILTER>  (1) 
1

>  <JCHEM_IUPAC>  (1) 
(4R,7R)-N-(1-hydroxybutan-2-yl)-6,11-dimethyl-6,11-diazatetracyclo[7.6.1.0²,⁷.0¹²,¹⁶]hexadeca-1(15),2,9,12(16),13-pentaene-4-carboxamide

>  <JCHEM_LOGP>  (1) 
1.816894446333333

>  <JCHEM_MDDR_LIKE_RULE>  (1) 
0

>  <JCHEM_NUMBER_OF_RINGS>  (1) 
4

>  <JCHEM_PHYSIOLOGICAL_CHARGE>  (1) 
1

>  <JCHEM_PKA>  (1) 
15.999869651456585

>  <JCHEM_PKA_STRONGEST_ACIDIC>  (1) 
15.00651187764884

>  <JCHEM_PKA_STRONGEST_BASIC>  (1) 
7.854388664235875

>  <JCHEM_POLAR_SURFACE_AREA>  (1) 
57.5

>  <JCHEM_REFRACTIVITY>  (1) 
104.4726

>  <JCHEM_ROTATABLE_BOND_COUNT>  (1) 
4

>  <JCHEM_RULE_OF_FIVE>  (1) 
1

>  <JCHEM_TRADITIONAL_IUPAC>  (1) 
methysergide

>  <JCHEM_VEBER_RULE>  (1) 
0

>  <MOLECULAR_WEIGHT>  (1) 
353.458

>  <PRODUCTS>  (1) 
Sansert

>  <SALTS>  (1) 
Methysergide maleate

>  <SECONDARY_ACCESSION_NUMBERS>  (1) 
APRD00463

>  <SMILES>  (1) 
[H][C@@]12CC3=CN(C)C4=C3C(=CC=C4)C1=C[C@H](CN2C)C(=O)NC(CC)CO

>  <SYNONYMS>  (1) 
1-Methyllysergic acid butanolamide; Methysergidum; Metisergido; N-(1-(Hydroxymethyl)propyl)-1-methyl-dextro-(+)-lysergamide

$$$$
