530
     RDKit          2D

 52 54  0  0  0  0  0  0  0  0999 V2000
    4.5080    0.2782    0.0000 O   0  0  0  0  0  0  0  0  0  0  0  0
    4.5080    1.9282    0.0000 O   0  0  0  0  0  0  0  0  0  0  0  0
    2.3645    0.6907    0.0000 O   0  0  0  0  0  0  0  0  0  0  0  0
    3.7935    3.9908    0.0000 O   0  0  0  0  0  0  0  0  0  0  0  0
    7.3795   -0.5754    0.0000 N   0  0  0  0  0  0  0  0  0  0  0  0
    7.3889    1.9568    0.0000 N   0  0  0  0  0  0  0  0  0  0  0  0
    8.1365    0.6735    0.0000 N   0  0  0  0  0  0  0  0  0  0  0  0
    6.6515    0.6907    0.0000 C   0  0  0  0  0  0  0  0  0  0  0  0
    6.6515    1.5157    0.0000 C   0  0  0  0  0  0  0  0  0  0  0  0
    5.2224    0.6907    0.0000 C   0  0  0  0  0  0  0  0  0  0  0  0
    5.2224    1.5157    0.0000 C   0  0  0  0  0  0  0  0  0  0  0  0
    5.9370    0.2782    0.0000 C   0  0  0  0  0  0  0  0  0  0  0  0
    7.3889    0.2496    0.0000 C   0  0  0  0  0  0  0  0  0  0  0  0
    5.9370    1.9282    0.0000 C   0  0  0  0  0  0  0  0  0  0  0  0
    3.7935    0.6907    0.0000 C   0  0  0  0  0  0  0  0  0  0  0  0
    8.0891   -0.9961    0.0000 C   0  0  0  0  0  0  0  0  0  0  0  0
    4.5080    2.7533    0.0000 C   0  0  0  0  0  0  0  0  0  0  0  0
    8.1365    1.5329    0.0000 C   0  0  0  0  0  0  0  0  0  0  0  0
    3.0791    0.2782    0.0000 C   0  0  0  0  0  0  0  0  0  0  0  0
    3.7935    3.1658    0.0000 C   0  0  0  0  0  0  0  0  0  0  0  0
    8.0796   -1.8211    0.0000 C   0  0  0  0  0  0  0  0  0  0  0  0
    8.8083   -0.5920    0.0000 C   0  0  0  0  0  0  0  0  0  0  0  0
    8.7892   -2.2418    0.0000 C   0  0  0  0  0  0  0  0  0  0  0  0
    9.5180   -1.0126    0.0000 C   0  0  0  0  0  0  0  0  0  0  0  0
    9.5084   -1.8376    0.0000 C   0  0  0  0  0  0  0  0  0  0  0  0
    1.6500    0.2782    0.0000 C   0  0  0  0  0  0  0  0  0  0  0  0
    3.0791    4.4033    0.0000 C   0  0  0  0  0  0  0  0  0  0  0  0
    8.7797   -3.0668    0.0000 C   0  0  0  0  0  0  0  0  0  0  0  0
    8.7701   -3.8918    0.0000 C   0  0  0  0  0  0  0  0  0  0  0  0
    0.0000    0.0000    0.0000 H   0  0  0  0  0  0  0  0  0  0  0  0
    0.0000    0.0000    0.0000 H   0  0  0  0  0  0  0  0  0  0  0  0
    0.0000    0.0000    0.0000 H   0  0  0  0  0  0  0  0  0  0  0  0
    0.0000    0.0000    0.0000 H   0  0  0  0  0  0  0  0  0  0  0  0
    0.0000    0.0000    0.0000 H   0  0  0  0  0  0  0  0  0  0  0  0
    0.0000    0.0000    0.0000 H   0  0  0  0  0  0  0  0  0  0  0  0
    0.0000    0.0000    0.0000 H   0  0  0  0  0  0  0  0  0  0  0  0
    0.0000    0.0000    0.0000 H   0  0  0  0  0  0  0  0  0  0  0  0
    0.0000    0.0000    0.0000 H   0  0  0  0  0  0  0  0  0  0  0  0
    0.0000    0.0000    0.0000 H   0  0  0  0  0  0  0  0  0  0  0  0
    0.0000    0.0000    0.0000 H   0  0  0  0  0  0  0  0  0  0  0  0
    0.0000    0.0000    0.0000 H   0  0  0  0  0  0  0  0  0  0  0  0
    0.0000    0.0000    0.0000 H   0  0  0  0  0  0  0  0  0  0  0  0
    0.0000    0.0000    0.0000 H   0  0  0  0  0  0  0  0  0  0  0  0
    0.0000    0.0000    0.0000 H   0  0  0  0  0  0  0  0  0  0  0  0
    0.0000    0.0000    0.0000 H   0  0  0  0  0  0  0  0  0  0  0  0
    0.0000    0.0000    0.0000 H   0  0  0  0  0  0  0  0  0  0  0  0
    0.0000    0.0000    0.0000 H   0  0  0  0  0  0  0  0  0  0  0  0
    0.0000    0.0000    0.0000 H   0  0  0  0  0  0  0  0  0  0  0  0
    0.0000    0.0000    0.0000 H   0  0  0  0  0  0  0  0  0  0  0  0
    0.0000    0.0000    0.0000 H   0  0  0  0  0  0  0  0  0  0  0  0
    0.0000    0.0000    0.0000 H   0  0  0  0  0  0  0  0  0  0  0  0
    0.0000    0.0000    0.0000 H   0  0  0  0  0  0  0  0  0  0  0  0
  1 10  1  0
  1 15  1  0
  2 11  1  0
  2 17  1  0
  3 19  1  0
  3 26  1  0
  4 20  1  0
  4 27  1  0
  5 13  1  0
  5 16  1  0
  6  9  2  0
  6 18  1  0
  7 13  1  0
  7 18  2  0
  8  9  1  0
  8 12  1  0
  8 13  2  0
  9 14  1  0
 10 11  1  0
 10 12  2  0
 11 14  2  0
 15 19  1  0
 16 21  2  0
 16 22  1  0
 17 20  1  0
 21 23  1  0
 22 24  2  0
 23 25  2  0
 23 28  1  0
 24 25  1  0
 28 29  3  0
  5 30  1  0
 12 31  1  0
 14 32  1  0
 15 33  1  0
 15 34  1  0
 17 35  1  0
 17 36  1  0
 18 37  1  0
 19 38  1  0
 19 39  1  0
 20 40  1  0
 20 41  1  0
 21 42  1  0
 22 43  1  0
 24 44  1  0
 25 45  1  0
 26 46  1  0
 26 47  1  0
 26 48  1  0
 27 49  1  0
 27 50  1  0
 27 51  1  0
 29 52  1  0
M  END
>  <ALOGPS_LOGP>  (1) 
3.13

>  <ALOGPS_LOGS>  (1) 
-4.64

>  <ALOGPS_SOLUBILITY>  (1) 
8.91e-03 g/l

>  <DATABASE_ID>  (1) 
DB00530

>  <DATABASE_NAME>  (1) 
drugbank

>  <DRUGBANK_ID>  (1) 
DB00530

>  <DRUG_GROUPS>  (1) 
approved; investigational

>  <EXACT_MASS>  (1) 
393.168856239

>  <FORMULA>  (1) 
C22H23N3O4

>  <GENERIC_NAME>  (1) 
Erlotinib

>  <INCHI_IDENTIFIER>  (1) 
InChI=1S/C22H23N3O4/c1-4-16-6-5-7-17(12-16)25-22-18-13-20(28-10-8-26-2)21(29-11-9-27-3)14-19(18)23-15-24-22/h1,5-7,12-15H,8-11H2,2-3H3,(H,23,24,25)

>  <INCHI_KEY>  (1) 
AAKJLRGGTJKAMG-UHFFFAOYSA-N

>  <JCHEM_ACCEPTOR_COUNT>  (1) 
7

>  <JCHEM_AVERAGE_POLARIZABILITY>  (1) 
43.481984980674554

>  <JCHEM_BIOAVAILABILITY>  (1) 
1

>  <JCHEM_DONOR_COUNT>  (1) 
1

>  <JCHEM_FORMAL_CHARGE>  (1) 
0

>  <JCHEM_GHOSE_FILTER>  (1) 
1

>  <JCHEM_IUPAC>  (1) 
N-(3-ethynylphenyl)-6,7-bis(2-methoxyethoxy)quinazolin-4-amine

>  <JCHEM_LOGP>  (1) 
3.2009875863333344

>  <JCHEM_MDDR_LIKE_RULE>  (1) 
1

>  <JCHEM_NUMBER_OF_RINGS>  (1) 
3

>  <JCHEM_PHYSIOLOGICAL_CHARGE>  (1) 
0

>  <JCHEM_PKA_STRONGEST_ACIDIC>  (1) 
16.143808891275707

>  <JCHEM_PKA_STRONGEST_BASIC>  (1) 
4.5874862488003805

>  <JCHEM_POLAR_SURFACE_AREA>  (1) 
74.73

>  <JCHEM_REFRACTIVITY>  (1) 
107.78590000000001

>  <JCHEM_ROTATABLE_BOND_COUNT>  (1) 
10

>  <JCHEM_RULE_OF_FIVE>  (1) 
1

>  <JCHEM_TRADITIONAL_IUPAC>  (1) 
erlotinib

>  <JCHEM_VEBER_RULE>  (1) 
0

>  <MOLECULAR_WEIGHT>  (1) 
393.4357

>  <PRODUCTS>  (1) 
Apo-erlotinib; PMS-erlotinib; Tarceva; Teva-erlotinib

>  <SALTS>  (1) 
Erlotinib Hydrochloride

>  <SECONDARY_ACCESSION_NUMBERS>  (1) 
APRD00951

>  <SMILES>  (1) 
COCCOC1=C(OCCOC)C=C2C(NC3=CC=CC(=C3)C#C)=NC=NC2=C1

>  <SYNONYMS>  (1) 
OSI-774

$$$$
