
     RDKit          2D

 87 89  0  0  0  0  0  0  0  0999 V2000
    1.8562   -0.7144    0.0000 C   0  0  0  0  0  0  0  0  0  0  0  0
    2.2687   -1.4289    0.0000 C   0  0  0  0  0  0  0  0  0  0  0  0
    1.0312   -2.1434    0.0000 C   0  0  0  0  0  0  0  0  0  0  0  0
   -3.9187    0.7144    0.0000 C   0  0  0  0  0  0  0  0  0  0  0  0
   -0.6187    0.7144    0.0000 C   0  0  0  0  0  0  0  0  0  0  0  0
    1.0312    0.7144    0.0000 C   0  0  0  0  0  0  0  0  0  0  0  0
    2.2687    0.0000    0.0000 C   0  0  0  0  0  0  0  0  0  0  0  0
    1.8562   -2.1434    0.0000 C   0  0  0  0  0  0  0  0  0  0  0  0
    3.0937   -1.4289    0.0000 C   0  0  0  0  0  0  0  0  0  0  0  0
   -3.0937    0.7144    0.0000 C   0  0  0  0  0  0  0  0  0  0  0  0
   -1.4437    0.7144    0.0000 C   0  0  0  0  0  0  0  0  0  0  0  0
    0.6187    1.4289    0.0000 C   0  0  0  0  0  0  0  0  0  0  0  0
    3.0937    0.0000    0.0000 C   0  0  0  0  0  0  0  0  0  0  0  0
    2.2687   -2.8578    0.0000 C   0  0  0  0  0  0  0  0  0  0  0  0
    3.5062   -2.1434    0.0000 C   0  0  0  0  0  0  0  0  0  0  0  0
   -2.6812    1.4289    0.0000 C   0  0  0  0  0  0  0  0  0  0  0  0
    3.5062    0.7144    0.0000 C   0  0  0  0  0  0  0  0  0  0  0  0
    3.0937   -2.8578    0.0000 C   0  0  0  0  0  0  0  0  0  0  0  0
    0.6187    2.8578    0.0000 C   0  0  0  0  0  0  0  0  0  0  0  0
    3.0937    1.4289    0.0000 C   0  0  0  0  0  0  0  0  0  0  0  0
   -0.2062    2.8578    0.0000 C   0  0  0  0  0  0  0  0  0  0  0  0
   -1.8562    1.4289    0.0000 C   0  0  0  0  0  0  0  0  0  0  0  0
    1.0312    2.1434    0.0000 C   0  0  0  0  0  0  0  0  0  0  0  0
    2.2687    1.4289    0.0000 C   0  0  0  0  0  0  0  0  0  0  0  0
   -0.6187    2.1434    0.0000 C   0  0  0  0  0  0  0  0  0  0  0  0
    3.5062   -0.7144    0.0000 N   0  0  0  0  0  0  0  0  0  0  0  0
    0.6187   -2.8578    0.0000 O   0  0  0  0  0  0  0  0  0  0  0  0
   -4.3312    0.0000    0.0000 O   0  0  0  0  0  0  0  0  0  0  0  0
   -0.2062    0.0000    0.0000 O   0  0  0  0  0  0  0  0  0  0  0  0
    0.6187    0.0000    0.0000 O   0  0  0  0  0  0  0  0  0  0  0  0
   -2.6812    0.0000    0.0000 O   0  0  0  0  0  0  0  0  0  0  0  0
   -1.8562    0.0000    0.0000 O   0  0  0  0  0  0  0  0  0  0  0  0
    1.8562   -3.5723    0.0000 O   0  0  0  0  0  0  0  0  0  0  0  0
    4.3312   -2.1434    0.0000 O   0  0  0  0  0  0  0  0  0  0  0  0
   -3.0937    2.1434    0.0000 O   0  0  0  0  0  0  0  0  0  0  0  0
    4.3312    0.7144    0.0000 O   0  0  0  0  0  0  0  0  0  0  0  0
    3.5062   -3.5723    0.0000 O   0  0  0  0  0  0  0  0  0  0  0  0
    1.0312    3.5723    0.0000 O   0  0  0  0  0  0  0  0  0  0  0  0
    3.5062    2.1434    0.0000 O   0  0  0  0  0  0  0  0  0  0  0  0
   -0.6187    3.5723    0.0000 O   0  0  0  0  0  0  0  0  0  0  0  0
    1.8562    0.7144    0.0000 O   0  0  0  0  0  0  0  0  0  0  0  0
   -0.2062    1.4289    0.0000 O   0  0  0  0  0  0  0  0  0  0  0  0
   -1.4437    2.1434    0.0000 O   0  0  0  0  0  0  0  0  0  0  0  0
    1.8562    2.1434    0.0000 O   0  0  0  0  0  0  0  0  0  0  0  0
    0.0000    0.0000    0.0000 H   0  0  0  0  0  0  0  0  0  0  0  0
    0.0000    0.0000    0.0000 H   0  0  0  0  0  0  0  0  0  0  0  0
    0.0000    0.0000    0.0000 H   0  0  0  0  0  0  0  0  0  0  0  0
    0.0000    0.0000    0.0000 H   0  0  0  0  0  0  0  0  0  0  0  0
    0.0000    0.0000    0.0000 H   0  0  0  0  0  0  0  0  0  0  0  0
    0.0000    0.0000    0.0000 H   0  0  0  0  0  0  0  0  0  0  0  0
    0.0000    0.0000    0.0000 H   0  0  0  0  0  0  0  0  0  0  0  0
    0.0000    0.0000    0.0000 H   0  0  0  0  0  0  0  0  0  0  0  0
    0.0000    0.0000    0.0000 H   0  0  0  0  0  0  0  0  0  0  0  0
    0.0000    0.0000    0.0000 H   0  0  0  0  0  0  0  0  0  0  0  0
    0.0000    0.0000    0.0000 H   0  0  0  0  0  0  0  0  0  0  0  0
    0.0000    0.0000    0.0000 H   0  0  0  0  0  0  0  0  0  0  0  0
    0.0000    0.0000    0.0000 H   0  0  0  0  0  0  0  0  0  0  0  0
    0.0000    0.0000    0.0000 H   0  0  0  0  0  0  0  0  0  0  0  0
    0.0000    0.0000    0.0000 H   0  0  0  0  0  0  0  0  0  0  0  0
    0.0000    0.0000    0.0000 H   0  0  0  0  0  0  0  0  0  0  0  0
    0.0000    0.0000    0.0000 H   0  0  0  0  0  0  0  0  0  0  0  0
    0.0000    0.0000    0.0000 H   0  0  0  0  0  0  0  0  0  0  0  0
    0.0000    0.0000    0.0000 H   0  0  0  0  0  0  0  0  0  0  0  0
    0.0000    0.0000    0.0000 H   0  0  0  0  0  0  0  0  0  0  0  0
    0.0000    0.0000    0.0000 H   0  0  0  0  0  0  0  0  0  0  0  0
    0.0000    0.0000    0.0000 H   0  0  0  0  0  0  0  0  0  0  0  0
    0.0000    0.0000    0.0000 H   0  0  0  0  0  0  0  0  0  0  0  0
    0.0000    0.0000    0.0000 H   0  0  0  0  0  0  0  0  0  0  0  0
    0.0000    0.0000    0.0000 H   0  0  0  0  0  0  0  0  0  0  0  0
    0.0000    0.0000    0.0000 H   0  0  0  0  0  0  0  0  0  0  0  0
    0.0000    0.0000    0.0000 H   0  0  0  0  0  0  0  0  0  0  0  0
    0.0000    0.0000    0.0000 H   0  0  0  0  0  0  0  0  0  0  0  0
    0.0000    0.0000    0.0000 H   0  0  0  0  0  0  0  0  0  0  0  0
    0.0000    0.0000    0.0000 H   0  0  0  0  0  0  0  0  0  0  0  0
    0.0000    0.0000    0.0000 H   0  0  0  0  0  0  0  0  0  0  0  0
    0.0000    0.0000    0.0000 H   0  0  0  0  0  0  0  0  0  0  0  0
    0.0000    0.0000    0.0000 H   0  0  0  0  0  0  0  0  0  0  0  0
    0.0000    0.0000    0.0000 H   0  0  0  0  0  0  0  0  0  0  0  0
    0.0000    0.0000    0.0000 H   0  0  0  0  0  0  0  0  0  0  0  0
    0.0000    0.0000    0.0000 H   0  0  0  0  0  0  0  0  0  0  0  0
    0.0000    0.0000    0.0000 H   0  0  0  0  0  0  0  0  0  0  0  0
    0.0000    0.0000    0.0000 H   0  0  0  0  0  0  0  0  0  0  0  0
    0.0000    0.0000    0.0000 H   0  0  0  0  0  0  0  0  0  0  0  0
    0.0000    0.0000    0.0000 H   0  0  0  0  0  0  0  0  0  0  0  0
    0.0000    0.0000    0.0000 H   0  0  0  0  0  0  0  0  0  0  0  0
    0.0000    0.0000    0.0000 H   0  0  0  0  0  0  0  0  0  0  0  0
    0.0000    0.0000    0.0000 H   0  0  0  0  0  0  0  0  0  0  0  0
  7  1  1  1
  8  2  2  0
  8  3  1  0
  9  2  1  0
 10  4  1  6
 11  5  1  1
 12  6  1  1
 13  7  1  0
 14  8  1  0
 15  9  1  0
 16 10  1  0
 17 13  1  0
 18 14  1  0
 18 15  1  0
 20 17  1  0
 21 19  1  0
 22 11  1  0
 22 16  1  0
 23 12  1  0
 23 19  1  0
 24 20  1  0
 25 21  1  0
  9 26  1  6
 13 26  1  1
 27  3  1  0
 28  4  2  0
 29  5  1  0
 30  6  1  0
 10 31  1  0
 11 32  1  0
 14 33  1  6
 15 34  1  1
 16 35  1  6
 17 36  1  6
 18 37  1  6
 19 38  1  6
 20 39  1  1
 21 40  1  1
 41  7  1  0
 41 24  1  0
 42 12  1  0
 42 25  1  0
 22 43  1  6
 25 43  1  6
 23 44  1  6
 24 44  1  6
  1 45  1  0
  1 46  1  0
  1 47  1  0
  2 48  1  0
  3 49  1  0
  3 50  1  0
  4 51  1  0
  5 52  1  0
  5 53  1  0
  6 54  1  0
  6 55  1  0
  7 56  1  0
  9 57  1  0
 10 58  1  0
 11 59  1  0
 12 60  1  0
 13 61  1  0
 14 62  1  0
 15 63  1  0
 16 64  1  0
 17 65  1  0
 18 66  1  0
 19 67  1  0
 20 68  1  0
 21 69  1  0
 22 70  1  0
 23 71  1  0
 24 72  1  0
 25 73  1  0
 26 74  1  0
 27 75  1  0
 29 76  1  0
 30 77  1  0
 31 78  1  0
 32 79  1  0
 33 80  1  0
 34 81  1  0
 35 82  1  0
 36 83  1  0
 37 84  1  0
 38 85  1  0
 39 86  1  0
 40 87  1  0
M  END
>  <ALOGPS_LOGP>  (1) 
-2.70

>  <ALOGPS_LOGS>  (1) 
-0.78

>  <ALOGPS_SOLUBILITY>  (1) 
1.08e+02 g/l

>  <DATABASE_ID>  (1) 
DB00284

>  <DATABASE_NAME>  (1) 
drugbank

>  <DRUGBANK_ID>  (1) 
DB00284

>  <DRUG_GROUPS>  (1) 
approved; investigational

>  <EXACT_MASS>  (1) 
645.248013549

>  <FORMULA>  (1) 
C25H43NO18

>  <GENERIC_NAME>  (1) 
Acarbose

>  <INCHI_IDENTIFIER>  (1) 
InChI=1S/C25H43NO18/c1-7-13(26-9-2-8(3-27)14(33)18(37)15(9)34)17(36)20(39)24(41-7)44-23-12(6-30)42-25(21(40)19(23)38)43-22(11(32)5-29)16(35)10(31)4-28/h2,4,7,9-27,29-40H,3,5-6H2,1H3/t7-,9+,10+,11-,12-,13-,14-,15+,16-,17+,18+,19-,20-,21-,22-,23-,24-,25-/m1/s1

>  <INCHI_KEY>  (1) 
CEMXHAPUFJOOSV-XGWNLRGSSA-N

>  <INTERNATIONAL_BRANDS>  (1) 
Prandase

>  <JCHEM_ACCEPTOR_COUNT>  (1) 
19

>  <JCHEM_ATOM_COUNT>  (1) 
87

>  <JCHEM_AVERAGE_POLARIZABILITY>  (1) 
62.11403780236809

>  <JCHEM_BIOAVAILABILITY>  (1) 
0

>  <JCHEM_DONOR_COUNT>  (1) 
14

>  <JCHEM_FORMAL_CHARGE>  (1) 
0

>  <JCHEM_GHOSE_FILTER>  (1) 
0

>  <JCHEM_IUPAC>  (1) 
(2R,3R,4R,5R)-4-{[(2R,3R,4R,5S,6R)-5-{[(2R,3R,4S,5S,6R)-3,4-dihydroxy-6-methyl-5-{[(1S,4R,5S,6S)-4,5,6-trihydroxy-3-(hydroxymethyl)cyclohex-2-en-1-yl]amino}oxan-2-yl]oxy}-3,4-dihydroxy-6-(hydroxymethyl)oxan-2-yl]oxy}-2,3,5,6-tetrahydroxyhexanal

>  <JCHEM_LOGP>  (1) 
-8.250380201666667

>  <JCHEM_MDDR_LIKE_RULE>  (1) 
1

>  <JCHEM_NUMBER_OF_RINGS>  (1) 
3

>  <JCHEM_PHYSIOLOGICAL_CHARGE>  (1) 
1

>  <JCHEM_PKA>  (1) 
12.276417769284294

>  <JCHEM_PKA_STRONGEST_ACIDIC>  (1) 
11.833791449129755

>  <JCHEM_PKA_STRONGEST_BASIC>  (1) 
7.031615999623758

>  <JCHEM_POLAR_SURFACE_AREA>  (1) 
329.01000000000005

>  <JCHEM_REFRACTIVITY>  (1) 
139.02459999999994

>  <JCHEM_ROTATABLE_BOND_COUNT>  (1) 
13

>  <JCHEM_RULE_OF_FIVE>  (1) 
0

>  <JCHEM_TRADITIONAL_IUPAC>  (1) 
(2R,3R,4R,5R)-4-{[(2R,3R,4R,5S,6R)-5-{[(2R,3R,4S,5S,6R)-3,4-dihydroxy-6-methyl-5-{[(1S,4R,5S,6S)-4,5,6-trihydroxy-3-(hydroxymethyl)cyclohex-2-en-1-yl]amino}oxan-2-yl]oxy}-3,4-dihydroxy-6-(hydroxymethyl)oxan-2-yl]oxy}-2,3,5,6-tetrahydroxyhexanal

>  <JCHEM_VEBER_RULE>  (1) 
0

>  <MOLECULAR_WEIGHT>  (1) 
645.608

>  <PRODUCTS>  (1) 
Acarbose; Glucobay; Precose

>  <SECONDARY_ACCESSION_NUMBERS>  (1) 
APRD00656

>  <SMILES>  (1) 
[H][C@@](O)(CO)[C@@]([H])(O[C@@]1([H])O[C@]([H])(CO)[C@@]([H])(O[C@@]2([H])O[C@]([H])(C)[C@@]([H])(N[C@@]3([H])C=C(CO)[C@@]([H])(O)[C@]([H])(O)[C@@]3([H])O)[C@]([H])(O)[C@@]2([H])O)[C@]([H])(O)[C@@]1([H])O)[C@]([H])(O)[C@@]([H])(O)C=O

>  <SYNONYMS>  (1) 
Acarbosa; Acarbose; Acarbosum

$$$$
