690
     RDKit          2D

 50 52  0  0  0  0  0  0  0  0999 V2000
    5.2302   -2.7288    0.0000 Cl  0  0  0  0  0  0  0  0  0  0  0  0
    8.0735    0.3999    0.0000 F   0  0  0  0  0  0  0  0  0  0  0  0
    5.0238    1.9897    0.0000 O   0  0  0  0  0  0  0  0  0  0  0  0
    4.8673    0.6014    0.0000 N   0  0  0  0  0  0  0  0  0  0  0  0
    3.0155    1.7569    0.0000 N   0  0  0  0  0  0  0  0  0  0  0  0
    6.7212    0.6014    0.0000 N   0  0  0  0  0  0  0  0  0  0  0  0
    4.0630    0.7849    0.0000 C   0  0  0  0  0  0  0  0  0  0  0  0
    3.8198    1.5733    0.0000 C   0  0  0  0  0  0  0  0  0  0  0  0
    5.0509   -0.2030    0.0000 C   0  0  0  0  0  0  0  0  0  0  0  0
    2.4543    1.1521    0.0000 C   0  0  0  0  0  0  0  0  0  0  0  0
    2.7723    2.5453    0.0000 C   0  0  0  0  0  0  0  0  0  0  0  0
    5.7942   -0.5609    0.0000 C   0  0  0  0  0  0  0  0  0  0  0  0
    5.3817    1.2464    0.0000 C   0  0  0  0  0  0  0  0  0  0  0  0
    6.5376   -0.2030    0.0000 C   0  0  0  0  0  0  0  0  0  0  0  0
    6.2068    1.2464    0.0000 C   0  0  0  0  0  0  0  0  0  0  0  0
    4.3336   -0.6761    0.0000 C   0  0  0  0  0  0  0  0  0  0  0  0
    5.8716   -1.4168    0.0000 C   0  0  0  0  0  0  0  0  0  0  0  0
    1.6500    1.3357    0.0000 C   0  0  0  0  0  0  0  0  0  0  0  0
    1.9680    2.7288    0.0000 C   0  0  0  0  0  0  0  0  0  0  0  0
    7.1826   -0.7174    0.0000 C   0  0  0  0  0  0  0  0  0  0  0  0
    4.3911   -1.5335    0.0000 C   0  0  0  0  0  0  0  0  0  0  0  0
    5.1654   -1.9064    0.0000 C   0  0  0  0  0  0  0  0  0  0  0  0
    7.9506   -0.4160    0.0000 C   0  0  0  0  0  0  0  0  0  0  0  0
    7.0597   -1.5332    0.0000 C   0  0  0  0  0  0  0  0  0  0  0  0
    8.5956   -0.9304    0.0000 C   0  0  0  0  0  0  0  0  0  0  0  0
    7.7047   -2.0475    0.0000 C   0  0  0  0  0  0  0  0  0  0  0  0
    8.4727   -1.7461    0.0000 C   0  0  0  0  0  0  0  0  0  0  0  0
    0.0000    0.0000    0.0000 H   0  0  0  0  0  0  0  0  0  0  0  0
    0.0000    0.0000    0.0000 H   0  0  0  0  0  0  0  0  0  0  0  0
    0.0000    0.0000    0.0000 H   0  0  0  0  0  0  0  0  0  0  0  0
    0.0000    0.0000    0.0000 H   0  0  0  0  0  0  0  0  0  0  0  0
    0.0000    0.0000    0.0000 H   0  0  0  0  0  0  0  0  0  0  0  0
    0.0000    0.0000    0.0000 H   0  0  0  0  0  0  0  0  0  0  0  0
    0.0000    0.0000    0.0000 H   0  0  0  0  0  0  0  0  0  0  0  0
    0.0000    0.0000    0.0000 H   0  0  0  0  0  0  0  0  0  0  0  0
    0.0000    0.0000    0.0000 H   0  0  0  0  0  0  0  0  0  0  0  0
    0.0000    0.0000    0.0000 H   0  0  0  0  0  0  0  0  0  0  0  0
    0.0000    0.0000    0.0000 H   0  0  0  0  0  0  0  0  0  0  0  0
    0.0000    0.0000    0.0000 H   0  0  0  0  0  0  0  0  0  0  0  0
    0.0000    0.0000    0.0000 H   0  0  0  0  0  0  0  0  0  0  0  0
    0.0000    0.0000    0.0000 H   0  0  0  0  0  0  0  0  0  0  0  0
    0.0000    0.0000    0.0000 H   0  0  0  0  0  0  0  0  0  0  0  0
    0.0000    0.0000    0.0000 H   0  0  0  0  0  0  0  0  0  0  0  0
    0.0000    0.0000    0.0000 H   0  0  0  0  0  0  0  0  0  0  0  0
    0.0000    0.0000    0.0000 H   0  0  0  0  0  0  0  0  0  0  0  0
    0.0000    0.0000    0.0000 H   0  0  0  0  0  0  0  0  0  0  0  0
    0.0000    0.0000    0.0000 H   0  0  0  0  0  0  0  0  0  0  0  0
    0.0000    0.0000    0.0000 H   0  0  0  0  0  0  0  0  0  0  0  0
    0.0000    0.0000    0.0000 H   0  0  0  0  0  0  0  0  0  0  0  0
    0.0000    0.0000    0.0000 H   0  0  0  0  0  0  0  0  0  0  0  0
  1 22  1  0
  2 23  1  0
  3 13  2  0
  4  7  1  0
  4  9  1  0
  4 13  1  0
  5  8  1  0
  5 10  1  0
  5 11  1  0
  6 14  2  0
  6 15  1  0
  7  8  1  0
  9 12  2  0
  9 16  1  0
 10 18  1  0
 11 19  1  0
 12 14  1  0
 12 17  1  0
 13 15  1  0
 14 20  1  0
 16 21  2  0
 17 22  2  0
 20 23  2  0
 20 24  1  0
 21 22  1  0
 23 25  1  0
 24 26  2  0
 25 27  2  0
 26 27  1  0
  7 28  1  0
  7 29  1  0
  8 30  1  0
  8 31  1  0
 10 32  1  0
 10 33  1  0
 11 34  1  0
 11 35  1  0
 15 36  1  0
 15 37  1  0
 16 38  1  0
 17 39  1  0
 18 40  1  0
 18 41  1  0
 18 42  1  0
 19 43  1  0
 19 44  1  0
 19 45  1  0
 21 46  1  0
 24 47  1  0
 25 48  1  0
 26 49  1  0
 27 50  1  0
M  END
>  <ALOGPS_LOGP>  (1) 
3.81

>  <ALOGPS_LOGS>  (1) 
-4.59

>  <ALOGPS_SOLUBILITY>  (1) 
1.00e-02 g/l

>  <DATABASE_ID>  (1) 
DB00690

>  <DATABASE_NAME>  (1) 
drugbank

>  <DRUGBANK_ID>  (1) 
DB00690

>  <DRUG_GROUPS>  (1) 
approved; illicit

>  <EXACT_MASS>  (1) 
387.151368285

>  <FORMULA>  (1) 
C21H23ClFN3O

>  <GENERIC_NAME>  (1) 
Flurazepam

>  <INCHI_IDENTIFIER>  (1) 
InChI=1S/C21H23ClFN3O/c1-3-25(4-2)11-12-26-19-10-9-15(22)13-17(19)21(24-14-20(26)27)16-7-5-6-8-18(16)23/h5-10,13H,3-4,11-12,14H2,1-2H3

>  <INCHI_KEY>  (1) 
SAADBVWGJQAEFS-UHFFFAOYSA-N

>  <INTERNATIONAL_BRANDS>  (1) 
Dalmadorm; Dalmadorm medium; Felison; Flunox; Sompan; Valdorm

>  <JCHEM_ACCEPTOR_COUNT>  (1) 
3

>  <JCHEM_AVERAGE_POLARIZABILITY>  (1) 
41.220640768421966

>  <JCHEM_BIOAVAILABILITY>  (1) 
1

>  <JCHEM_DONOR_COUNT>  (1) 
0

>  <JCHEM_FORMAL_CHARGE>  (1) 
0

>  <JCHEM_GHOSE_FILTER>  (1) 
1

>  <JCHEM_IUPAC>  (1) 
7-chloro-1-[2-(diethylamino)ethyl]-5-(2-fluorophenyl)-2,3-dihydro-1H-1,4-benzodiazepin-2-one

>  <JCHEM_LOGP>  (1) 
3.951048935333333

>  <JCHEM_MDDR_LIKE_RULE>  (1) 
1

>  <JCHEM_NUMBER_OF_RINGS>  (1) 
3

>  <JCHEM_PHYSIOLOGICAL_CHARGE>  (1) 
1

>  <JCHEM_PKA_STRONGEST_BASIC>  (1) 
8.71035223145298

>  <JCHEM_POLAR_SURFACE_AREA>  (1) 
35.910000000000004

>  <JCHEM_REFRACTIVITY>  (1) 
107.54460000000003

>  <JCHEM_ROTATABLE_BOND_COUNT>  (1) 
6

>  <JCHEM_RULE_OF_FIVE>  (1) 
1

>  <JCHEM_TRADITIONAL_IUPAC>  (1) 
flurazepam

>  <JCHEM_VEBER_RULE>  (1) 
1

>  <MOLECULAR_WEIGHT>  (1) 
387.878

>  <PRODUCTS>  (1) 
Bio-flurazepam; Dalmane; Flurazepam; Flurazepam 15; Flurazepam 15mg Capsule; Flurazepam 30; Flurazepam 30mg Capsule; Flurazepam Hydrochloride; Novo-flupam Cap 15mg; Novo-flupam Cap 30mg; PMS-flurazepam Cap 15mg; PMS-flurazepam Cap 30mg; Riva-flurazepam 15mg Capsules; Riva-flurazepam 30mg Capsules; Som-pam; Somnol 15mg; Somnol 30mg

>  <SALTS>  (1) 
Flurazepam Hydrochloride

>  <SECONDARY_ACCESSION_NUMBERS>  (1) 
APRD00983

>  <SMILES>  (1) 
CCN(CC)CCN1C2=C(C=C(Cl)C=C2)C(=NCC1=O)C1=CC=CC=C1F

>  <SYNONYMS>  (1) 
Flurazepam; Fluraz√©pam; Flurazepamum

$$$$
