
     RDKit          2D

 42 44  0  0  0  0  0  0  0  0999 V2000
   10.8582   -5.2880    0.0000 C   0  0  0  0  0  0  0  0  0  0  0  0
   11.5256   -4.8030    0.0000 C   0  0  0  0  0  0  0  0  0  0  0  0
   11.2707   -4.0184    0.0000 C   0  0  0  0  0  0  0  0  0  0  0  0
   10.4457   -4.0184    0.0000 C   0  0  0  0  0  0  0  0  0  0  0  0
   10.1908   -4.8030    0.0000 C   0  0  0  0  0  0  0  0  0  0  0  0
    9.8937   -3.4053    0.0000 C   0  0  0  0  0  0  0  0  0  0  0  0
    9.0867   -3.5769    0.0000 C   0  0  0  0  0  0  0  0  0  0  0  0
    8.8317   -4.3615    0.0000 C   0  0  0  0  0  0  0  0  0  0  0  0
    9.3838   -4.9746    0.0000 C   0  0  0  0  0  0  0  0  0  0  0  0
   10.8582   -6.1130    0.0000 C   0  0  0  0  0  0  0  0  0  0  0  0
   10.1437   -6.5255    0.0000 C   0  0  0  0  0  0  0  0  0  0  0  0
    9.4292   -6.1129    0.0000 C   0  0  0  0  0  0  0  0  0  0  0  0
    8.7148   -6.5255    0.0000 C   0  0  0  0  0  0  0  0  0  0  0  0
    8.7148   -7.3505    0.0000 C   0  0  0  0  0  0  0  0  0  0  0  0
    9.4292   -7.7630    0.0000 C   0  0  0  0  0  0  0  0  0  0  0  0
   10.1437   -7.3505    0.0000 C   0  0  0  0  0  0  0  0  0  0  0  0
    8.0003   -7.7630    0.0000 S   0  0  0  0  0  0  0  0  0  0  0  0
    8.0003   -8.5880    0.0000 O   0  0  0  0  0  0  0  0  0  0  0  0
    7.2858   -7.3505    0.0000 C   0  0  0  0  0  0  0  0  0  0  0  0
   11.8540   -3.4351    0.0000 C   0  0  0  0  0  0  0  0  0  0  0  0
   12.6509   -3.6486    0.0000 C   0  0  0  0  0  0  0  0  0  0  0  0
   13.2343   -3.0652    0.0000 O   0  0  0  0  0  0  0  0  0  0  0  0
   12.9370   -4.4274    0.0000 O   0  0  0  0  0  0  0  0  0  0  0  0
    8.5033   -2.9935    0.0000 F   0  0  0  0  0  0  0  0  0  0  0  0
   12.3225   -5.0165    0.0000 C   0  0  0  0  0  0  0  0  0  0  0  0
    0.0000    0.0000    0.0000 H   0  0  0  0  0  0  0  0  0  0  0  0
    0.0000    0.0000    0.0000 H   0  0  0  0  0  0  0  0  0  0  0  0
    0.0000    0.0000    0.0000 H   0  0  0  0  0  0  0  0  0  0  0  0
    0.0000    0.0000    0.0000 H   0  0  0  0  0  0  0  0  0  0  0  0
    0.0000    0.0000    0.0000 H   0  0  0  0  0  0  0  0  0  0  0  0
    0.0000    0.0000    0.0000 H   0  0  0  0  0  0  0  0  0  0  0  0
    0.0000    0.0000    0.0000 H   0  0  0  0  0  0  0  0  0  0  0  0
    0.0000    0.0000    0.0000 H   0  0  0  0  0  0  0  0  0  0  0  0
    0.0000    0.0000    0.0000 H   0  0  0  0  0  0  0  0  0  0  0  0
    0.0000    0.0000    0.0000 H   0  0  0  0  0  0  0  0  0  0  0  0
    0.0000    0.0000    0.0000 H   0  0  0  0  0  0  0  0  0  0  0  0
    0.0000    0.0000    0.0000 H   0  0  0  0  0  0  0  0  0  0  0  0
    0.0000    0.0000    0.0000 H   0  0  0  0  0  0  0  0  0  0  0  0
    0.0000    0.0000    0.0000 H   0  0  0  0  0  0  0  0  0  0  0  0
    0.0000    0.0000    0.0000 H   0  0  0  0  0  0  0  0  0  0  0  0
    0.0000    0.0000    0.0000 H   0  0  0  0  0  0  0  0  0  0  0  0
    0.0000    0.0000    0.0000 H   0  0  0  0  0  0  0  0  0  0  0  0
  1  2  1  0
  2  3  2  0
  3  4  1  0
  1  5  1  0
  6  4  1  0
  5  4  2  0
  9  5  1  0
  6  7  2  0
  7  8  1  0
  8  9  2  0
  1 10  2  0
 10 11  1  0
 16 11  1  0
 12 11  2  0
 12 13  1  0
 13 14  2  0
 14 15  1  0
 15 16  2  0
 14 17  1  0
 17 18  2  0
 17 19  1  0
  3 20  1  0
 20 21  1  0
 21 22  1  0
 21 23  2  0
  7 24  1  0
  2 25  1  0
  6 26  1  0
  8 27  1  0
  9 28  1  0
 10 29  1  0
 12 30  1  0
 13 31  1  0
 15 32  1  0
 16 33  1  0
 19 34  1  0
 19 35  1  0
 19 36  1  0
 20 37  1  0
 20 38  1  0
 22 39  1  0
 25 40  1  0
 25 41  1  0
 25 42  1  0
M  END
>  <ALOGPS_LOGP>  (1) 
2.96

>  <ALOGPS_LOGS>  (1) 
-4.15

>  <ALOGPS_SOLUBILITY>  (1) 
2.51e-02 g/l

>  <DATABASE_ID>  (1) 
DB00605

>  <DATABASE_NAME>  (1) 
drugbank

>  <DRUGBANK_ID>  (1) 
DB00605

>  <DRUG_GROUPS>  (1) 
approved

>  <EXACT_MASS>  (1) 
356.088243305

>  <FORMULA>  (1) 
C20H17FO3S

>  <GENERIC_NAME>  (1) 
Sulindac

>  <INCHI_IDENTIFIER>  (1) 
InChI=1S/C20H17FO3S/c1-12-17(9-13-3-6-15(7-4-13)25(2)24)16-8-5-14(21)10-19(16)18(12)11-20(22)23/h3-10H,11H2,1-2H3,(H,22,23)/b17-9-

>  <INCHI_KEY>  (1) 
MLKXDPUZXIRXEP-MFOYZWKCSA-N

>  <INTERNATIONAL_BRANDS>  (1) 
Clinoril

>  <JCHEM_ACCEPTOR_COUNT>  (1) 
3

>  <JCHEM_AVERAGE_POLARIZABILITY>  (1) 
37.20104119112119

>  <JCHEM_BIOAVAILABILITY>  (1) 
1

>  <JCHEM_DONOR_COUNT>  (1) 
1

>  <JCHEM_FORMAL_CHARGE>  (1) 
0

>  <JCHEM_GHOSE_FILTER>  (1) 
1

>  <JCHEM_IUPAC>  (1) 
2-[(1Z)-5-fluoro-1-[(4-methanesulfinylphenyl)methylidene]-2-methyl-1H-inden-3-yl]acetic acid

>  <JCHEM_LOGP>  (1) 
2.9261546376666665

>  <JCHEM_MDDR_LIKE_RULE>  (1) 
0

>  <JCHEM_NUMBER_OF_RINGS>  (1) 
3

>  <JCHEM_PHYSIOLOGICAL_CHARGE>  (1) 
-1

>  <JCHEM_PKA>  (1) 
19.371149972919564

>  <JCHEM_PKA_STRONGEST_ACIDIC>  (1) 
4.090206179286022

>  <JCHEM_PKA_STRONGEST_BASIC>  (1) 
-6.655325429806263

>  <JCHEM_POLAR_SURFACE_AREA>  (1) 
54.37

>  <JCHEM_REFRACTIVITY>  (1) 
99.5588

>  <JCHEM_ROTATABLE_BOND_COUNT>  (1) 
4

>  <JCHEM_RULE_OF_FIVE>  (1) 
1

>  <JCHEM_TRADITIONAL_IUPAC>  (1) 
sulindac

>  <JCHEM_VEBER_RULE>  (1) 
0

>  <MOLECULAR_WEIGHT>  (1) 
356.411

>  <PRODUCTS>  (1) 
Apo-sulin Tab 150mg; Apo-sulin Tab 200mg; Clinoril Tab 150mg; Clinoril Tab 200mg; Nu-sulindac Tab 150mg; Nu-sulindac Tab 200mg; Penta-sulindac; Sulindac; Sulindac-150 Tab 150mg; Sulindac-200 Tab 200mg; Sunlindac; Teva-sulindac

>  <SALTS>  (1) 
Sulindac sodium

>  <SECONDARY_ACCESSION_NUMBERS>  (1) 
APRD01243

>  <SMILES>  (1) 
CC1=C(CC(O)=O)C2=CC(F)=CC=C2\C1=C/C1=CC=C(C=C1)S(C)=O

$$$$
