
     RDKit          2D

 21 20  0  0  1  0  0  0  0  0999 V2000
   -1.6671    0.2292    0.0000 C   0  0  0  0  0  0  0  0  0  0  0  0
   -0.9526   -0.1833    0.0000 C   0  0  0  0  0  0  0  0  0  0  0  0
   -0.2382    0.2292    0.0000 C   0  0  0  0  0  0  0  0  0  0  0  0
    0.4763   -0.1833    0.0000 C   0  0  0  0  0  0  0  0  0  0  0  0
    1.1908    0.2292    0.0000 C   0  0  0  0  0  0  0  0  0  0  0  0
    1.1908    1.0542    0.0000 O   0  0  0  0  0  0  0  0  0  0  0  0
   -2.3816   -0.1833    0.0000 N   0  0  0  0  0  0  0  0  0  0  0  0
    0.4763   -1.0083    0.0000 N   0  0  0  0  0  0  0  0  0  0  0  0
    1.9053   -0.1833    0.0000 O   0  0  0  0  0  0  0  0  0  0  0  0
    0.0000    0.0000    0.0000 H   0  0  0  0  0  0  0  0  0  0  0  0
    0.0000    0.0000    0.0000 H   0  0  0  0  0  0  0  0  0  0  0  0
    0.0000    0.0000    0.0000 H   0  0  0  0  0  0  0  0  0  0  0  0
    0.0000    0.0000    0.0000 H   0  0  0  0  0  0  0  0  0  0  0  0
    0.0000    0.0000    0.0000 H   0  0  0  0  0  0  0  0  0  0  0  0
    0.0000    0.0000    0.0000 H   0  0  0  0  0  0  0  0  0  0  0  0
    0.0000    0.0000    0.0000 H   0  0  0  0  0  0  0  0  0  0  0  0
    0.0000    0.0000    0.0000 H   0  0  0  0  0  0  0  0  0  0  0  0
    0.0000    0.0000    0.0000 H   0  0  0  0  0  0  0  0  0  0  0  0
    0.0000    0.0000    0.0000 H   0  0  0  0  0  0  0  0  0  0  0  0
    0.0000    0.0000    0.0000 H   0  0  0  0  0  0  0  0  0  0  0  0
    0.0000    0.0000    0.0000 H   0  0  0  0  0  0  0  0  0  0  0  0
  2  1  1  0
  3  2  1  0
  4  3  1  1
  5  4  1  0
  6  5  2  0
  7  1  1  0
  4  8  1  0
  9  5  1  0
  1 10  1  0
  1 11  1  0
  2 12  1  0
  2 13  1  0
  3 14  1  0
  3 15  1  0
  4 16  1  0
  7 17  1  0
  7 18  1  0
  8 19  1  0
  8 20  1  0
  9 21  1  0
M  END
>  <ALOGPS_LOGP>  (1) 
-3.64

>  <ALOGPS_LOGS>  (1) 
0.11

>  <ALOGPS_SOLUBILITY>  (1) 
1.72e+02 g/l

>  <DATABASE_ID>  (1) 
DB00129

>  <DATABASE_NAME>  (1) 
drugbank

>  <DRUGBANK_ID>  (1) 
DB00129

>  <DRUG_GROUPS>  (1) 
approved; nutraceutical

>  <EXACT_MASS>  (1) 
132.089877638

>  <FORMULA>  (1) 
C5H12N2O2

>  <GENERIC_NAME>  (1) 
Ornithine

>  <INCHI_IDENTIFIER>  (1) 
InChI=1S/C5H12N2O2/c6-3-1-2-4(7)5(8)9/h4H,1-3,6-7H2,(H,8,9)/t4-/m0/s1

>  <INCHI_KEY>  (1) 
AHLPHDHHMVZTML-BYPYZUCNSA-N

>  <JCHEM_ACCEPTOR_COUNT>  (1) 
4

>  <JCHEM_AVERAGE_POLARIZABILITY>  (1) 
13.853261407645917

>  <JCHEM_BIOAVAILABILITY>  (1) 
1

>  <JCHEM_DONOR_COUNT>  (1) 
3

>  <JCHEM_FORMAL_CHARGE>  (1) 
0

>  <JCHEM_GHOSE_FILTER>  (1) 
0

>  <JCHEM_IUPAC>  (1) 
(2S)-2,5-diaminopentanoic acid

>  <JCHEM_LOGP>  (1) 
-3.6582876081320586

>  <JCHEM_MDDR_LIKE_RULE>  (1) 
0

>  <JCHEM_NUMBER_OF_RINGS>  (1) 
0

>  <JCHEM_PHYSIOLOGICAL_CHARGE>  (1) 
1

>  <JCHEM_PKA_STRONGEST_ACIDIC>  (1) 
2.666422703275891

>  <JCHEM_PKA_STRONGEST_BASIC>  (1) 
10.2868213384358

>  <JCHEM_POLAR_SURFACE_AREA>  (1) 
89.34

>  <JCHEM_REFRACTIVITY>  (1) 
33.20850000000001

>  <JCHEM_ROTATABLE_BOND_COUNT>  (1) 
4

>  <JCHEM_RULE_OF_FIVE>  (1) 
1

>  <JCHEM_TRADITIONAL_IUPAC>  (1) 
ornithine

>  <JCHEM_VEBER_RULE>  (1) 
0

>  <MOLECULAR_WEIGHT>  (1) 
132.161

>  <PRODUCTS>  (1) 
Primene 10%; Primene 10%-liq IV

>  <SALTS>  (1) 
Ornithine dihydrochloride; Ornithine hydrochloride; Ornithine oxoglurate

>  <SECONDARY_ACCESSION_NUMBERS>  (1) 
NUTR00043

>  <SMILES>  (1) 
NCCC[C@H](N)C(O)=O

>  <SYNONYMS>  (1) 
(S)-2,5-Diaminopentanoate; (S)-2,5-Diaminopentanoic acid; (S)-2,5-diaminovaleric acid; (S)-ornithine; (S)-α,δ-diaminovaleric acid; L-Ornithine; levo-ornithine

$$$$
