
     RDKit          2D

 37 39  0  0  0  0  0  0  0  0999 V2000
   -3.1527    0.6777    0.0000 C   0  0  0  0  0  0  0  0  0  0  0  0
   -3.8671    0.2652    0.0000 C   0  0  0  0  0  0  0  0  0  0  0  0
   -3.8671   -0.5598    0.0000 C   0  0  0  0  0  0  0  0  0  0  0  0
   -3.1527   -0.9723    0.0000 C   0  0  0  0  0  0  0  0  0  0  0  0
   -2.4382   -0.5598    0.0000 C   0  0  0  0  0  0  0  0  0  0  0  0
   -2.4382    0.2652    0.0000 C   0  0  0  0  0  0  0  0  0  0  0  0
   -1.7237    0.6777    0.0000 O   0  0  0  0  0  0  0  0  0  0  0  0
   -1.7237   -0.9723    0.0000 C   0  0  0  0  0  0  0  0  0  0  0  0
   -1.0093   -0.5598    0.0000 C   0  0  0  0  0  0  0  0  0  0  0  0
   -1.0093    0.2652    0.0000 C   0  0  0  0  0  0  0  0  0  0  0  0
   -0.2948   -0.9723    0.0000 C   0  0  0  0  0  0  0  0  0  0  0  0
    0.4197   -0.5598    0.0000 C   0  0  0  0  0  0  0  0  0  0  0  0
    1.1341    0.6777    0.0000 C   0  0  0  0  0  0  0  0  0  0  0  0
    0.4197    0.2652    0.0000 C   0  0  0  0  0  0  0  0  0  0  0  0
    1.1341   -0.9723    0.0000 C   0  0  0  0  0  0  0  0  0  0  0  0
    1.8486   -0.5598    0.0000 C   0  0  0  0  0  0  0  0  0  0  0  0
    1.8486    0.2652    0.0000 C   0  0  0  0  0  0  0  0  0  0  0  0
   -0.2948   -1.7973    0.0000 C   0  0  0  0  0  0  0  0  0  0  0  0
    0.4197   -2.2098    0.0000 C   0  0  0  0  0  0  0  0  0  0  0  0
   -1.7237   -1.7973    0.0000 O   0  0  0  0  0  0  0  0  0  0  0  0
   -0.2948    0.6777    0.0000 O   0  0  0  0  0  0  0  0  0  0  0  0
    0.0000    0.0000    0.0000 H   0  0  0  0  0  0  0  0  0  0  0  0
    0.0000    0.0000    0.0000 H   0  0  0  0  0  0  0  0  0  0  0  0
    0.0000    0.0000    0.0000 H   0  0  0  0  0  0  0  0  0  0  0  0
    0.0000    0.0000    0.0000 H   0  0  0  0  0  0  0  0  0  0  0  0
    0.0000    0.0000    0.0000 H   0  0  0  0  0  0  0  0  0  0  0  0
    0.0000    0.0000    0.0000 H   0  0  0  0  0  0  0  0  0  0  0  0
    0.0000    0.0000    0.0000 H   0  0  0  0  0  0  0  0  0  0  0  0
    0.0000    0.0000    0.0000 H   0  0  0  0  0  0  0  0  0  0  0  0
    0.0000    0.0000    0.0000 H   0  0  0  0  0  0  0  0  0  0  0  0
    0.0000    0.0000    0.0000 H   0  0  0  0  0  0  0  0  0  0  0  0
    0.0000    0.0000    0.0000 H   0  0  0  0  0  0  0  0  0  0  0  0
    0.0000    0.0000    0.0000 H   0  0  0  0  0  0  0  0  0  0  0  0
    0.0000    0.0000    0.0000 H   0  0  0  0  0  0  0  0  0  0  0  0
    0.0000    0.0000    0.0000 H   0  0  0  0  0  0  0  0  0  0  0  0
    0.0000    0.0000    0.0000 H   0  0  0  0  0  0  0  0  0  0  0  0
    0.0000    0.0000    0.0000 H   0  0  0  0  0  0  0  0  0  0  0  0
  1  2  2  0
  1  6  1  0
  2  3  1  0
  3  4  2  0
  4  5  1  0
  7  6  1  0
  6  5  2  0
  5  8  1  0
  7 10  1  0
  8  9  2  0
  9 10  1  0
  9 11  1  0
 11 12  1  0
 14 12  1  0
 12 15  2  0
 13 14  2  0
 13 17  1  0
 15 16  1  0
 16 17  2  0
 11 18  1  0
 18 19  1  0
  8 20  1  0
 10 21  2  0
  1 22  1  0
  2 23  1  0
  3 24  1  0
  4 25  1  0
 11 26  1  0
 13 27  1  0
 14 28  1  0
 15 29  1  0
 16 30  1  0
 17 31  1  0
 18 32  1  0
 18 33  1  0
 19 34  1  0
 19 35  1  0
 19 36  1  0
 20 37  1  0
M  END
>  <ALOGPS_LOGP>  (1) 
3.81

>  <ALOGPS_LOGS>  (1) 
-3.76

>  <ALOGPS_SOLUBILITY>  (1) 
4.86e-02 g/l

>  <DATABASE_ID>  (1) 
DB00946

>  <DATABASE_NAME>  (1) 
drugbank

>  <DRUGBANK_ID>  (1) 
DB00946

>  <DRUG_GROUPS>  (1) 
approved; investigational

>  <EXACT_MASS>  (1) 
280.109944378

>  <FORMULA>  (1) 
C18H16O3

>  <GENERIC_NAME>  (1) 
Phenprocoumon

>  <INCHI_IDENTIFIER>  (1) 
InChI=1S/C18H16O3/c1-2-13(12-8-4-3-5-9-12)16-17(19)14-10-6-7-11-15(14)21-18(16)20/h3-11,13,19H,2H2,1H3

>  <INCHI_KEY>  (1) 
DQDAYGNAKTZFIW-UHFFFAOYSA-N

>  <INTERNATIONAL_BRANDS>  (1) 
Falithrom; Marcoumar; Marcumar

>  <JCHEM_ACCEPTOR_COUNT>  (1) 
2

>  <JCHEM_AVERAGE_POLARIZABILITY>  (1) 
29.918673803084125

>  <JCHEM_BIOAVAILABILITY>  (1) 
1

>  <JCHEM_DONOR_COUNT>  (1) 
1

>  <JCHEM_FORMAL_CHARGE>  (1) 
0

>  <JCHEM_GHOSE_FILTER>  (1) 
1

>  <JCHEM_IUPAC>  (1) 
4-hydroxy-3-(1-phenylpropyl)-2H-chromen-2-one

>  <JCHEM_LOGP>  (1) 
3.735323604666666

>  <JCHEM_MDDR_LIKE_RULE>  (1) 
0

>  <JCHEM_NUMBER_OF_RINGS>  (1) 
3

>  <JCHEM_PHYSIOLOGICAL_CHARGE>  (1) 
-1

>  <JCHEM_PKA_STRONGEST_ACIDIC>  (1) 
6.438633009678774

>  <JCHEM_PKA_STRONGEST_BASIC>  (1) 
-6.543541921575128

>  <JCHEM_POLAR_SURFACE_AREA>  (1) 
46.53

>  <JCHEM_REFRACTIVITY>  (1) 
81.6436

>  <JCHEM_ROTATABLE_BOND_COUNT>  (1) 
3

>  <JCHEM_RULE_OF_FIVE>  (1) 
1

>  <JCHEM_TRADITIONAL_IUPAC>  (1) 
phenprocoumon

>  <JCHEM_VEBER_RULE>  (1) 
0

>  <MOLECULAR_WEIGHT>  (1) 
280.3178

>  <SECONDARY_ACCESSION_NUMBERS>  (1) 
APRD00228

>  <SMILES>  (1) 
CCC(C1=CC=CC=C1)C1=C(O)C2=C(OC1=O)C=CC=C2

>  <SYNONYMS>  (1) 
Fenprocumone; Phenprocoumarol; Phenprocoumarole; Phenprocoumone; Phenprocumone

$$$$
