398
     RDKit          2D

 48 50  0  0  0  0  0  0  0  0999 V2000
    1.6500    3.0938    0.0000 Cl  0  0  0  0  0  0  0  0  0  0  0  0
    2.2540    3.9188    0.0000 F   0  0  0  0  0  0  0  0  0  0  0  0
    3.9041    3.9188    0.0000 F   0  0  0  0  0  0  0  0  0  0  0  0
    3.0791    4.7439    0.0000 F   0  0  0  0  0  0  0  0  0  0  0  0
    5.2224   -3.0938    0.0000 O   0  0  0  0  0  0  0  0  0  0  0  0
    3.7935    0.2063    0.0000 O   0  0  0  0  0  0  0  0  0  0  0  0
    8.0804   -2.2688    0.0000 O   0  0  0  0  0  0  0  0  0  0  0  0
    4.5080    1.4438    0.0000 N   0  0  0  0  0  0  0  0  0  0  0  0
    5.2224    0.2063    0.0000 N   0  0  0  0  0  0  0  0  0  0  0  0
    7.3659   -4.3313    0.0000 N   0  0  0  0  0  0  0  0  0  0  0  0
    8.7949   -3.5063    0.0000 N   0  0  0  0  0  0  0  0  0  0  0  0
    3.7935    1.8563    0.0000 C   0  0  0  0  0  0  0  0  0  0  0  0
    3.0791    3.0938    0.0000 C   0  0  0  0  0  0  0  0  0  0  0  0
    3.7935    2.6813    0.0000 C   0  0  0  0  0  0  0  0  0  0  0  0
    5.2224   -0.6188    0.0000 C   0  0  0  0  0  0  0  0  0  0  0  0
    3.0791    1.4438    0.0000 C   0  0  0  0  0  0  0  0  0  0  0  0
    5.2224   -2.2688    0.0000 C   0  0  0  0  0  0  0  0  0  0  0  0
    2.3645    2.6813    0.0000 C   0  0  0  0  0  0  0  0  0  0  0  0
    5.9370   -1.0313    0.0000 C   0  0  0  0  0  0  0  0  0  0  0  0
    4.5080   -1.0313    0.0000 C   0  0  0  0  0  0  0  0  0  0  0  0
    2.3645    1.8563    0.0000 C   0  0  0  0  0  0  0  0  0  0  0  0
    5.9370   -1.8563    0.0000 C   0  0  0  0  0  0  0  0  0  0  0  0
    4.5080   -1.8563    0.0000 C   0  0  0  0  0  0  0  0  0  0  0  0
    4.5080    0.6188    0.0000 C   0  0  0  0  0  0  0  0  0  0  0  0
    3.0791    3.9188    0.0000 C   0  0  0  0  0  0  0  0  0  0  0  0
    5.9370   -3.5063    0.0000 C   0  0  0  0  0  0  0  0  0  0  0  0
    6.6515   -3.0938    0.0000 C   0  0  0  0  0  0  0  0  0  0  0  0
    7.3659   -3.5063    0.0000 C   0  0  0  0  0  0  0  0  0  0  0  0
    5.9370   -4.3313    0.0000 C   0  0  0  0  0  0  0  0  0  0  0  0
    6.6515   -4.7439    0.0000 C   0  0  0  0  0  0  0  0  0  0  0  0
    8.0804   -3.0938    0.0000 C   0  0  0  0  0  0  0  0  0  0  0  0
    9.5094   -3.0938    0.0000 C   0  0  0  0  0  0  0  0  0  0  0  0
    0.0000    0.0000    0.0000 H   0  0  0  0  0  0  0  0  0  0  0  0
    0.0000    0.0000    0.0000 H   0  0  0  0  0  0  0  0  0  0  0  0
    0.0000    0.0000    0.0000 H   0  0  0  0  0  0  0  0  0  0  0  0
    0.0000    0.0000    0.0000 H   0  0  0  0  0  0  0  0  0  0  0  0
    0.0000    0.0000    0.0000 H   0  0  0  0  0  0  0  0  0  0  0  0
    0.0000    0.0000    0.0000 H   0  0  0  0  0  0  0  0  0  0  0  0
    0.0000    0.0000    0.0000 H   0  0  0  0  0  0  0  0  0  0  0  0
    0.0000    0.0000    0.0000 H   0  0  0  0  0  0  0  0  0  0  0  0
    0.0000    0.0000    0.0000 H   0  0  0  0  0  0  0  0  0  0  0  0
    0.0000    0.0000    0.0000 H   0  0  0  0  0  0  0  0  0  0  0  0
    0.0000    0.0000    0.0000 H   0  0  0  0  0  0  0  0  0  0  0  0
    0.0000    0.0000    0.0000 H   0  0  0  0  0  0  0  0  0  0  0  0
    0.0000    0.0000    0.0000 H   0  0  0  0  0  0  0  0  0  0  0  0
    0.0000    0.0000    0.0000 H   0  0  0  0  0  0  0  0  0  0  0  0
    0.0000    0.0000    0.0000 H   0  0  0  0  0  0  0  0  0  0  0  0
    0.0000    0.0000    0.0000 H   0  0  0  0  0  0  0  0  0  0  0  0
  1 18  1  0
  2 25  1  0
  3 25  1  0
  4 25  1  0
  5 17  1  0
  5 26  1  0
  6 24  2  0
  7 31  2  0
  8 12  1  0
  8 24  1  0
  9 15  1  0
  9 24  1  0
 10 28  2  0
 10 30  1  0
 11 31  1  0
 11 32  1  0
 12 14  1  0
 12 16  2  0
 13 14  2  0
 13 18  1  0
 13 25  1  0
 15 19  2  0
 15 20  1  0
 16 21  1  0
 17 22  2  0
 17 23  1  0
 18 21  2  0
 19 22  1  0
 20 23  2  0
 26 27  2  0
 26 29  1  0
 27 28  1  0
 28 31  1  0
 29 30  2  0
  8 33  1  0
  9 34  1  0
 11 35  1  0
 14 36  1  0
 16 37  1  0
 19 38  1  0
 20 39  1  0
 21 40  1  0
 22 41  1  0
 23 42  1  0
 27 43  1  0
 29 44  1  0
 30 45  1  0
 32 46  1  0
 32 47  1  0
 32 48  1  0
M  END
>  <ALOGPS_LOGP>  (1) 
4.12

>  <ALOGPS_LOGS>  (1) 
-5.43

>  <ALOGPS_SOLUBILITY>  (1) 
1.71e-03 g/l

>  <DATABASE_ID>  (1) 
DB00398

>  <DATABASE_NAME>  (1) 
drugbank

>  <DRUGBANK_ID>  (1) 
DB00398

>  <DRUG_GROUPS>  (1) 
approved; investigational

>  <EXACT_MASS>  (1) 
464.08630272

>  <FORMULA>  (1) 
C21H16ClF3N4O3

>  <GENERIC_NAME>  (1) 
Sorafenib

>  <INCHI_IDENTIFIER>  (1) 
InChI=1S/C21H16ClF3N4O3/c1-26-19(30)18-11-15(8-9-27-18)32-14-5-2-12(3-6-14)28-20(31)29-13-4-7-17(22)16(10-13)21(23,24)25/h2-11H,1H3,(H,26,30)(H2,28,29,31)

>  <INCHI_KEY>  (1) 
MLDQJTXFUGDVEO-UHFFFAOYSA-N

>  <JCHEM_ACCEPTOR_COUNT>  (1) 
3

>  <JCHEM_AVERAGE_POLARIZABILITY>  (1) 
41.10586489713454

>  <JCHEM_BIOAVAILABILITY>  (1) 
1

>  <JCHEM_DONOR_COUNT>  (1) 
3

>  <JCHEM_FORMAL_CHARGE>  (1) 
0

>  <JCHEM_GHOSE_FILTER>  (1) 
1

>  <JCHEM_IUPAC>  (1) 
4-[4-({[4-chloro-3-(trifluoromethyl)phenyl]carbamoyl}amino)phenoxy]-N-methylpyridine-2-carboxamide

>  <JCHEM_LOGP>  (1) 
4.343329760666666

>  <JCHEM_MDDR_LIKE_RULE>  (1) 
1

>  <JCHEM_NUMBER_OF_RINGS>  (1) 
3

>  <JCHEM_PHYSIOLOGICAL_CHARGE>  (1) 
0

>  <JCHEM_PKA>  (1) 
13.992074435078546

>  <JCHEM_PKA_STRONGEST_ACIDIC>  (1) 
11.54979758623275

>  <JCHEM_PKA_STRONGEST_BASIC>  (1) 
2.0299195999719735

>  <JCHEM_POLAR_SURFACE_AREA>  (1) 
92.35000000000001

>  <JCHEM_REFRACTIVITY>  (1) 
114.51830000000001

>  <JCHEM_ROTATABLE_BOND_COUNT>  (1) 
6

>  <JCHEM_RULE_OF_FIVE>  (1) 
1

>  <JCHEM_TRADITIONAL_IUPAC>  (1) 
sorafenib

>  <JCHEM_VEBER_RULE>  (1) 
0

>  <MOLECULAR_WEIGHT>  (1) 
464.825

>  <PRODUCTS>  (1) 
Nexavar

>  <SALTS>  (1) 
Sorafenib Tosylate

>  <SECONDARY_ACCESSION_NUMBERS>  (1) 
APRD01304; DB07438

>  <SMILES>  (1) 
CNC(=O)C1=NC=CC(OC2=CC=C(NC(=O)NC3=CC(=C(Cl)C=C3)C(F)(F)F)C=C2)=C1

$$$$
