451
     RDKit          2D

 35 36  0  0  1  0  0  0  0  0999 V2000
    4.9509    0.6683    0.0000 I   0  0  0  0  0  0  0  0  0  0  0  0
    2.0930    0.6683    0.0000 I   0  0  0  0  0  0  0  0  0  0  0  0
    6.3799    1.4933    0.0000 I   0  0  0  0  0  0  0  0  0  0  0  0
    4.9509    3.9683    0.0000 I   0  0  0  0  0  0  0  0  0  0  0  0
    3.5220    1.4933    0.0000 O   0  0  0  0  0  0  0  0  0  0  0  0
    2.0930   -3.4568    0.0000 O   0  0  0  0  0  0  0  0  0  0  0  0
    3.5220   -3.4568    0.0000 O   0  0  0  0  0  0  0  0  0  0  0  0
    6.3799    3.1433    0.0000 O   0  0  0  0  0  0  0  0  0  0  0  0
    2.0930   -1.8068    0.0000 N   0  0  0  0  0  0  0  0  0  0  0  0
    3.5220   -1.8068    0.0000 C   0  0  0  0  0  0  0  0  0  0  0  0
    2.8075   -2.2193    0.0000 C   0  0  0  0  0  0  0  0  0  0  0  0
    3.5220   -0.9818    0.0000 C   0  0  0  0  0  0  0  0  0  0  0  0
    2.8075   -0.5693    0.0000 C   0  0  0  0  0  0  0  0  0  0  0  0
    4.2365   -0.5693    0.0000 C   0  0  0  0  0  0  0  0  0  0  0  0
    3.5220    0.6683    0.0000 C   0  0  0  0  0  0  0  0  0  0  0  0
    4.2365    0.2558    0.0000 C   0  0  0  0  0  0  0  0  0  0  0  0
    2.8075    0.2558    0.0000 C   0  0  0  0  0  0  0  0  0  0  0  0
    2.8075   -3.0443    0.0000 C   0  0  0  0  0  0  0  0  0  0  0  0
    4.2365    1.9058    0.0000 C   0  0  0  0  0  0  0  0  0  0  0  0
    4.2365    2.7308    0.0000 C   0  0  0  0  0  0  0  0  0  0  0  0
    4.9509    1.4933    0.0000 C   0  0  0  0  0  0  0  0  0  0  0  0
    5.6655    1.9058    0.0000 C   0  0  0  0  0  0  0  0  0  0  0  0
    4.9509    3.1433    0.0000 C   0  0  0  0  0  0  0  0  0  0  0  0
    5.6655    2.7308    0.0000 C   0  0  0  0  0  0  0  0  0  0  0  0
    0.0000    0.0000    0.0000 H   0  0  0  0  0  0  0  0  0  0  0  0
    0.0000    0.0000    0.0000 H   0  0  0  0  0  0  0  0  0  0  0  0
    0.0000    0.0000    0.0000 H   0  0  0  0  0  0  0  0  0  0  0  0
    0.0000    0.0000    0.0000 H   0  0  0  0  0  0  0  0  0  0  0  0
    0.0000    0.0000    0.0000 H   0  0  0  0  0  0  0  0  0  0  0  0
    0.0000    0.0000    0.0000 H   0  0  0  0  0  0  0  0  0  0  0  0
    0.0000    0.0000    0.0000 H   0  0  0  0  0  0  0  0  0  0  0  0
    0.0000    0.0000    0.0000 H   0  0  0  0  0  0  0  0  0  0  0  0
    0.0000    0.0000    0.0000 H   0  0  0  0  0  0  0  0  0  0  0  0
    0.0000    0.0000    0.0000 H   0  0  0  0  0  0  0  0  0  0  0  0
    0.0000    0.0000    0.0000 H   0  0  0  0  0  0  0  0  0  0  0  0
  1 16  1  0
  2 17  1  0
  3 22  1  0
  4 23  1  0
  5 15  1  0
  5 19  1  0
  6 18  1  0
  7 18  2  0
  8 24  1  0
 11  9  1  1
 10 11  1  0
 10 12  1  0
 11 18  1  0
 12 13  2  0
 12 14  1  0
 13 17  1  0
 14 16  2  0
 15 16  1  0
 15 17  2  0
 19 20  2  0
 19 21  1  0
 20 23  1  0
 21 22  2  0
 22 24  1  0
 23 24  2  0
  6 25  1  0
  8 26  1  0
  9 27  1  0
  9 28  1  0
 10 29  1  0
 10 30  1  0
 11 31  1  0
 13 32  1  0
 14 33  1  0
 20 34  1  0
 21 35  1  0
M  END
>  <ALOGPS_LOGP>  (1) 
1.15

>  <ALOGPS_LOGS>  (1) 
-4.94

>  <ALOGPS_SOLUBILITY>  (1) 
8.98e-03 g/l

>  <DATABASE_ID>  (1) 
DB00451

>  <DATABASE_NAME>  (1) 
drugbank

>  <DRUGBANK_ID>  (1) 
DB00451

>  <DRUG_GROUPS>  (1) 
approved

>  <EXACT_MASS>  (1) 
776.686681525

>  <FORMULA>  (1) 
C15H11I4NO4

>  <GENERIC_NAME>  (1) 
Levothyroxine

>  <INCHI_IDENTIFIER>  (1) 
InChI=1S/C15H11I4NO4/c16-8-4-7(5-9(17)13(8)21)24-14-10(18)1-6(2-11(14)19)3-12(20)15(22)23/h1-2,4-5,12,21H,3,20H2,(H,22,23)/t12-/m0/s1

>  <INCHI_KEY>  (1) 
XUIIKFGFIJCVMT-LBPRGKRZSA-N

>  <INTERNATIONAL_BRANDS>  (1) 
Eutirox; Letrox; Levaxin; Levothyrox; Novothyrox; Oroxine; Thyrax

>  <JCHEM_ACCEPTOR_COUNT>  (1) 
4

>  <JCHEM_AVERAGE_POLARIZABILITY>  (1) 
49.40155461610982

>  <JCHEM_BIOAVAILABILITY>  (1) 
1

>  <JCHEM_DONOR_COUNT>  (1) 
3

>  <JCHEM_FORMAL_CHARGE>  (1) 
0

>  <JCHEM_GHOSE_FILTER>  (1) 
0

>  <JCHEM_IUPAC>  (1) 
(2S)-2-amino-3-[4-(4-hydroxy-3,5-diiodophenoxy)-3,5-diiodophenyl]propanoic acid

>  <JCHEM_LOGP>  (1) 
3.727307065150786

>  <JCHEM_MDDR_LIKE_RULE>  (1) 
0

>  <JCHEM_NUMBER_OF_RINGS>  (1) 
2

>  <JCHEM_PHYSIOLOGICAL_CHARGE>  (1) 
0

>  <JCHEM_PKA>  (1) 
7.426761076903324

>  <JCHEM_PKA_STRONGEST_ACIDIC>  (1) 
0.2733674568179616

>  <JCHEM_PKA_STRONGEST_BASIC>  (1) 
9.433364269994815

>  <JCHEM_POLAR_SURFACE_AREA>  (1) 
92.78

>  <JCHEM_REFRACTIVITY>  (1) 
126.78799999999997

>  <JCHEM_ROTATABLE_BOND_COUNT>  (1) 
5

>  <JCHEM_RULE_OF_FIVE>  (1) 
0

>  <JCHEM_TRADITIONAL_IUPAC>  (1) 
levothyroxine

>  <JCHEM_VEBER_RULE>  (1) 
0

>  <MOLECULAR_WEIGHT>  (1) 
776.87

>  <PRODUCTS>  (1) 
Eltroxin; Eltroxin 150 Tab; Eltroxin Tab 100mcg; Eltroxin Tab 200mcg; Eltroxin Tab 300mcg; Eltroxin Tab 50mcg; Euthyrox; Levo-T; Levo-T 100mcg - Tab; Levo-T 125mcg - Tab; Levo-T 150mcg - Tab; Levo-T 200mcg - Tab; Levo-T 25mcg - Tab; Levo-T 300mcg - Tab; Levo-T 50mcg - Tab; Levo-T 75mcg - Tab; Levotec 100mcg Tablets USP; Levotec 112mcg Tablets USP; Levotec 125mcg Tablets USP; Levotec 150mcg Tablets USP; Levotec 175mcg Tablets USP; Levotec 200mcg Tablets USP; Levotec 25mcg Tablets USP; Levotec 300mcg Tablets USP; Levotec 50mcg Tablets USP; Levotec 75mcg Tablets USP; Levothroid; Levothyroxine; Levothyroxine Sodium; Levothyroxine Sodium for Injection; Levothyroxine and Liothyronine Thyroid; Levothyroxine sodium; Levoxyl; NP Thyroid 120; NP Thyroid 15; NP Thyroid 30; NP Thyroid 60; NP Thyroid 90; PMS-levothyroxine Sodium Tab 100mcg; PMS-levothyroxine Sodium Tab 125mcg; PMS-levothyroxine Sodium Tab 150mcg; PMS-levothyroxine Sodium Tab 200mcg; PMS-levothyroxine Sodium Tab 25mcg; PMS-levothyroxine Sodium Tab 300mcg; PMS-levothyroxine Sodium Tab 50mcg; PMS-levothyroxine Sodium Tab 75mcg; Synthroid; Synthroid Liq Inj 500mcg/vial USP; Synthroid Tab 100mcg USP; Synthroid Tab 112mcg USP; Synthroid Tab 125mcg USP; Synthroid Tab 150mcg USP; Synthroid Tab 175mcg USP; Synthroid Tab 200mcg USP; Synthroid Tab 25mcg USP; Synthroid Tab 300mcg Tab; Synthroid Tab 50mcg USP; Synthroid Tab 75mcg USP; Synthroid Tab 88mcg USP; Tirosint; Unithroid

>  <SALTS>  (1) 
Levothyroxine sodium

>  <SECONDARY_ACCESSION_NUMBERS>  (1) 
APRD00235; EXPT02993

>  <SMILES>  (1) 
N[C@@H](CC1=CC(I)=C(OC2=CC(I)=C(O)C(I)=C2)C(I)=C1)C(O)=O

>  <SYNONYMS>  (1) 
3,3',5,5'-Tetraiodo-L-thyronine; 3,5,3',5'-TETRAIODO-L-thyronine; 4-(4-Hydroxy-3,5-diiodophenoxy)-3,5-diiodo-L-phenylalanine; L-T4; L-Thyroxine; Levothyroxin; LT4; O-(4-Hydroxy-3,5-diidophenyl)-3,5-diiodo-L-tyrosine; O-(4-Hydroxy-3,5-diiodophenyl)-3,5-diiodo-L-tyrosine; T4

$$$$
