967
     RDKit          2D

 41 44  0  0  0  0  0  0  0  0999 V2000
    1.6500    1.6844    0.0000 Cl  0  0  0  0  0  0  0  0  0  0  0  0
    4.8159   -1.8854    0.0000 N   0  0  0  0  0  0  0  0  0  0  0  0
    6.1800    0.3534    0.0000 N   0  0  0  0  0  0  0  0  0  0  0  0
    4.8159   -0.2354    0.0000 C   0  0  0  0  0  0  0  0  0  0  0  0
    4.8159    0.5896    0.0000 C   0  0  0  0  0  0  0  0  0  0  0  0
    4.1014   -0.6479    0.0000 C   0  0  0  0  0  0  0  0  0  0  0  0
    5.5303   -0.6479    0.0000 C   0  0  0  0  0  0  0  0  0  0  0  0
    4.1014   -1.4729    0.0000 C   0  0  0  0  0  0  0  0  0  0  0  0
    5.5303   -1.4729    0.0000 C   0  0  0  0  0  0  0  0  0  0  0  0
    4.0726    0.9476    0.0000 C   0  0  0  0  0  0  0  0  0  0  0  0
    5.5592    0.9476    0.0000 C   0  0  0  0  0  0  0  0  0  0  0  0
    4.4034    2.3969    0.0000 C   0  0  0  0  0  0  0  0  0  0  0  0
    3.8890    1.7519    0.0000 C   0  0  0  0  0  0  0  0  0  0  0  0
    5.2284    2.3969    0.0000 C   0  0  0  0  0  0  0  0  0  0  0  0
    5.7427    1.7519    0.0000 C   0  0  0  0  0  0  0  0  0  0  0  0
    3.4517    0.3534    0.0000 C   0  0  0  0  0  0  0  0  0  0  0  0
    3.0718    2.0178    0.0000 C   0  0  0  0  0  0  0  0  0  0  0  0
    6.5599    2.0178    0.0000 C   0  0  0  0  0  0  0  0  0  0  0  0
    2.6286    0.6004    0.0000 C   0  0  0  0  0  0  0  0  0  0  0  0
    2.4374    1.4382    0.0000 C   0  0  0  0  0  0  0  0  0  0  0  0
    7.1943    1.4381    0.0000 C   0  0  0  0  0  0  0  0  0  0  0  0
    7.0031    0.6004    0.0000 C   0  0  0  0  0  0  0  0  0  0  0  0
    0.0000    0.0000    0.0000 H   0  0  0  0  0  0  0  0  0  0  0  0
    0.0000    0.0000    0.0000 H   0  0  0  0  0  0  0  0  0  0  0  0
    0.0000    0.0000    0.0000 H   0  0  0  0  0  0  0  0  0  0  0  0
    0.0000    0.0000    0.0000 H   0  0  0  0  0  0  0  0  0  0  0  0
    0.0000    0.0000    0.0000 H   0  0  0  0  0  0  0  0  0  0  0  0
    0.0000    0.0000    0.0000 H   0  0  0  0  0  0  0  0  0  0  0  0
    0.0000    0.0000    0.0000 H   0  0  0  0  0  0  0  0  0  0  0  0
    0.0000    0.0000    0.0000 H   0  0  0  0  0  0  0  0  0  0  0  0
    0.0000    0.0000    0.0000 H   0  0  0  0  0  0  0  0  0  0  0  0
    0.0000    0.0000    0.0000 H   0  0  0  0  0  0  0  0  0  0  0  0
    0.0000    0.0000    0.0000 H   0  0  0  0  0  0  0  0  0  0  0  0
    0.0000    0.0000    0.0000 H   0  0  0  0  0  0  0  0  0  0  0  0
    0.0000    0.0000    0.0000 H   0  0  0  0  0  0  0  0  0  0  0  0
    0.0000    0.0000    0.0000 H   0  0  0  0  0  0  0  0  0  0  0  0
    0.0000    0.0000    0.0000 H   0  0  0  0  0  0  0  0  0  0  0  0
    0.0000    0.0000    0.0000 H   0  0  0  0  0  0  0  0  0  0  0  0
    0.0000    0.0000    0.0000 H   0  0  0  0  0  0  0  0  0  0  0  0
    0.0000    0.0000    0.0000 H   0  0  0  0  0  0  0  0  0  0  0  0
    0.0000    0.0000    0.0000 H   0  0  0  0  0  0  0  0  0  0  0  0
  1 20  1  0
  2  8  1  0
  2  9  1  0
  3 11  2  0
  3 22  1  0
  4  5  2  3
  4  6  1  0
  4  7  1  0
  5 10  1  0
  5 11  1  0
  6  8  1  0
  7  9  1  0
 10 13  2  0
 10 16  1  0
 11 15  1  0
 12 13  1  0
 12 14  1  0
 13 17  1  0
 14 15  1  0
 15 18  2  0
 16 19  2  0
 17 20  2  0
 18 21  1  0
 19 20  1  0
 21 22  2  0
  2 23  1  0
  6 24  1  0
  6 25  1  0
  7 26  1  0
  7 27  1  0
  8 28  1  0
  8 29  1  0
  9 30  1  0
  9 31  1  0
 12 32  1  0
 12 33  1  0
 14 34  1  0
 14 35  1  0
 16 36  1  0
 17 37  1  0
 18 38  1  0
 19 39  1  0
 21 40  1  0
 22 41  1  0
M  END
>  <ALOGPS_LOGP>  (1) 
3.48

>  <ALOGPS_LOGS>  (1) 
-4.90

>  <ALOGPS_SOLUBILITY>  (1) 
3.95e-03 g/l

>  <DATABASE_ID>  (1) 
DB00967

>  <DATABASE_NAME>  (1) 
drugbank

>  <DRUGBANK_ID>  (1) 
DB00967

>  <DRUG_GROUPS>  (1) 
approved; investigational

>  <EXACT_MASS>  (1) 
310.123676325

>  <FORMULA>  (1) 
C19H19ClN2

>  <GENERIC_NAME>  (1) 
Desloratadine

>  <INCHI_IDENTIFIER>  (1) 
InChI=1S/C19H19ClN2/c20-16-5-6-17-15(12-16)4-3-14-2-1-9-22-19(14)18(17)13-7-10-21-11-8-13/h1-2,5-6,9,12,21H,3-4,7-8,10-11H2

>  <INCHI_KEY>  (1) 
JAUOIFJMECXRGI-UHFFFAOYSA-N

>  <INTERNATIONAL_BRANDS>  (1) 
Claramax; NeoClarityn

>  <JCHEM_ACCEPTOR_COUNT>  (1) 
2

>  <JCHEM_AVERAGE_POLARIZABILITY>  (1) 
34.35062039939022

>  <JCHEM_BIOAVAILABILITY>  (1) 
1

>  <JCHEM_DONOR_COUNT>  (1) 
1

>  <JCHEM_FORMAL_CHARGE>  (1) 
0

>  <JCHEM_GHOSE_FILTER>  (1) 
1

>  <JCHEM_IUPAC>  (1) 
13-chloro-2-(piperidin-4-ylidene)-4-azatricyclo[9.4.0.0³,⁸]pentadeca-1(11),3(8),4,6,12,14-hexaene

>  <JCHEM_LOGP>  (1) 
3.968537941333333

>  <JCHEM_MDDR_LIKE_RULE>  (1) 
0

>  <JCHEM_NUMBER_OF_RINGS>  (1) 
4

>  <JCHEM_PHYSIOLOGICAL_CHARGE>  (1) 
1

>  <JCHEM_PKA_STRONGEST_BASIC>  (1) 
9.729122040669644

>  <JCHEM_POLAR_SURFACE_AREA>  (1) 
24.92

>  <JCHEM_REFRACTIVITY>  (1) 
101.03880000000002

>  <JCHEM_ROTATABLE_BOND_COUNT>  (1) 
0

>  <JCHEM_RULE_OF_FIVE>  (1) 
1

>  <JCHEM_TRADITIONAL_IUPAC>  (1) 
clarinex

>  <JCHEM_VEBER_RULE>  (1) 
1

>  <MOLECULAR_WEIGHT>  (1) 
310.821

>  <PRODUCTS>  (1) 
Aerius; Aerius Dual Action 12 Hour; Aerius Dual Action 24 Hour; Aerius Kids; Allergy Control Desloratadine; Allernix Multi Symptom; Clarinex; Clarinex-D 12 Hour; Dasselta; Desloratadine; Desloratadine Actavis; Desloratadine Allergy Control; Desloratadine Ratiopharm; Desloratadine Tablets; Neoclarityn

>  <SECONDARY_ACCESSION_NUMBERS>  (1) 
APRD00324

>  <SMILES>  (1) 
ClC1=CC2=C(C=C1)C(=C1CCNCC1)C1=C(CC2)C=CC=N1

>  <SYNONYMS>  (1) 
Descarboethoxyloratadine

$$$$
