381
     RDKit          2D

 53 54  0  0  1  0  0  0  0  0999 V2000
    6.7495    2.4615    0.0000 Cl  0  0  0  0  0  0  0  0  0  0  0  0
    3.7935   -1.3943    0.0000 O   0  0  0  0  0  0  0  0  0  0  0  0
    3.0791    0.6683    0.0000 O   0  0  0  0  0  0  0  0  0  0  0  0
    7.3659    0.6683    0.0000 O   0  0  0  0  0  0  0  0  0  0  0  0
    3.7935    1.9058    0.0000 O   0  0  0  0  0  0  0  0  0  0  0  0
    7.1818    1.7127    0.0000 O   0  0  0  0  0  0  0  0  0  0  0  0
    5.2224   -0.5693    0.0000 N   0  0  0  0  0  0  0  0  0  0  0  0
    2.3645   -3.0443    0.0000 N   0  0  0  0  0  0  0  0  0  0  0  0
    5.2224    1.0808    0.0000 C   0  0  0  0  0  0  0  0  0  0  0  0
    4.5080    0.6683    0.0000 C   0  0  0  0  0  0  0  0  0  0  0  0
    5.9370    0.6683    0.0000 C   0  0  0  0  0  0  0  0  0  0  0  0
    4.5080   -0.1568    0.0000 C   0  0  0  0  0  0  0  0  0  0  0  0
    5.9370   -0.1568    0.0000 C   0  0  0  0  0  0  0  0  0  0  0  0
    5.2224    1.9058    0.0000 C   0  0  0  0  0  0  0  0  0  0  0  0
    3.7935   -0.5693    0.0000 C   0  0  0  0  0  0  0  0  0  0  0  0
    3.7935    1.0808    0.0000 C   0  0  0  0  0  0  0  0  0  0  0  0
    6.6515   -0.5693    0.0000 C   0  0  0  0  0  0  0  0  0  0  0  0
    6.6515    1.0808    0.0000 C   0  0  0  0  0  0  0  0  0  0  0  0
    5.9370    2.3183    0.0000 C   0  0  0  0  0  0  0  0  0  0  0  0
    4.5080    2.3183    0.0000 C   0  0  0  0  0  0  0  0  0  0  0  0
    5.9370    3.1433    0.0000 C   0  0  0  0  0  0  0  0  0  0  0  0
    4.5080    3.1433    0.0000 C   0  0  0  0  0  0  0  0  0  0  0  0
    5.2224    3.5558    0.0000 C   0  0  0  0  0  0  0  0  0  0  0  0
    3.0791   -1.8068    0.0000 C   0  0  0  0  0  0  0  0  0  0  0  0
    2.3645    1.0808    0.0000 C   0  0  0  0  0  0  0  0  0  0  0  0
    3.0791   -2.6318    0.0000 C   0  0  0  0  0  0  0  0  0  0  0  0
    8.0804    1.0808    0.0000 C   0  0  0  0  0  0  0  0  0  0  0  0
    1.6500    0.6683    0.0000 C   0  0  0  0  0  0  0  0  0  0  0  0
    0.0000    0.0000    0.0000 H   0  0  0  0  0  0  0  0  0  0  0  0
    0.0000    0.0000    0.0000 H   0  0  0  0  0  0  0  0  0  0  0  0
    0.0000    0.0000    0.0000 H   0  0  0  0  0  0  0  0  0  0  0  0
    0.0000    0.0000    0.0000 H   0  0  0  0  0  0  0  0  0  0  0  0
    0.0000    0.0000    0.0000 H   0  0  0  0  0  0  0  0  0  0  0  0
    0.0000    0.0000    0.0000 H   0  0  0  0  0  0  0  0  0  0  0  0
    0.0000    0.0000    0.0000 H   0  0  0  0  0  0  0  0  0  0  0  0
    0.0000    0.0000    0.0000 H   0  0  0  0  0  0  0  0  0  0  0  0
    0.0000    0.0000    0.0000 H   0  0  0  0  0  0  0  0  0  0  0  0
    0.0000    0.0000    0.0000 H   0  0  0  0  0  0  0  0  0  0  0  0
    0.0000    0.0000    0.0000 H   0  0  0  0  0  0  0  0  0  0  0  0
    0.0000    0.0000    0.0000 H   0  0  0  0  0  0  0  0  0  0  0  0
    0.0000    0.0000    0.0000 H   0  0  0  0  0  0  0  0  0  0  0  0
    0.0000    0.0000    0.0000 H   0  0  0  0  0  0  0  0  0  0  0  0
    0.0000    0.0000    0.0000 H   0  0  0  0  0  0  0  0  0  0  0  0
    0.0000    0.0000    0.0000 H   0  0  0  0  0  0  0  0  0  0  0  0
    0.0000    0.0000    0.0000 H   0  0  0  0  0  0  0  0  0  0  0  0
    0.0000    0.0000    0.0000 H   0  0  0  0  0  0  0  0  0  0  0  0
    0.0000    0.0000    0.0000 H   0  0  0  0  0  0  0  0  0  0  0  0
    0.0000    0.0000    0.0000 H   0  0  0  0  0  0  0  0  0  0  0  0
    0.0000    0.0000    0.0000 H   0  0  0  0  0  0  0  0  0  0  0  0
    0.0000    0.0000    0.0000 H   0  0  0  0  0  0  0  0  0  0  0  0
    0.0000    0.0000    0.0000 H   0  0  0  0  0  0  0  0  0  0  0  0
    0.0000    0.0000    0.0000 H   0  0  0  0  0  0  0  0  0  0  0  0
    0.0000    0.0000    0.0000 H   0  0  0  0  0  0  0  0  0  0  0  0
  1 19  1  0
  2 15  1  0
  2 24  1  0
  3 16  1  0
  3 25  1  0
  4 18  1  0
  4 27  1  0
  5 16  2  0
  6 18  2  0
  7 12  1  0
  7 13  1  0
  8 26  1  0
  9 10  1  0
  9 11  1  0
  9 14  1  0
 10 12  2  0
 10 16  1  0
 11 13  2  0
 11 18  1  0
 12 15  1  0
 13 17  1  0
 14 19  2  0
 14 20  1  0
 19 21  1  0
 20 22  2  0
 21 23  2  0
 22 23  1  0
 24 26  1  0
 25 28  1  0
  7 29  1  0
  8 30  1  0
  8 31  1  0
  9 32  1  0
 15 33  1  0
 15 34  1  0
 17 35  1  0
 17 36  1  0
 17 37  1  0
 20 38  1  0
 21 39  1  0
 22 40  1  0
 23 41  1  0
 24 42  1  0
 24 43  1  0
 25 44  1  0
 25 45  1  0
 26 46  1  0
 26 47  1  0
 27 48  1  0
 27 49  1  0
 27 50  1  0
 28 51  1  0
 28 52  1  0
 28 53  1  0
M  END
>  <ALOGPS_LOGP>  (1) 
2.22

>  <ALOGPS_LOGS>  (1) 
-4.74

>  <ALOGPS_SOLUBILITY>  (1) 
7.40e-03 g/l

>  <DATABASE_ID>  (1) 
DB00381

>  <DATABASE_NAME>  (1) 
drugbank

>  <DRUGBANK_ID>  (1) 
DB00381

>  <DRUG_GROUPS>  (1) 
approved

>  <EXACT_MASS>  (1) 
408.145199627

>  <FORMULA>  (1) 
C20H25ClN2O5

>  <GENERIC_NAME>  (1) 
Amlodipine

>  <INCHI_IDENTIFIER>  (1) 
InChI=1S/C20H25ClN2O5/c1-4-28-20(25)18-15(11-27-10-9-22)23-12(2)16(19(24)26-3)17(18)13-7-5-6-8-14(13)21/h5-8,17,23H,4,9-11,22H2,1-3H3

>  <INCHI_KEY>  (1) 
HTIQEAQVCYTUBX-UHFFFAOYSA-N

>  <INTERNATIONAL_BRANDS>  (1) 
Aforbes; Agen; Aken; Amcard; Amdepin; Amdipin; Amlocard; Amlod; Amlodine; Amlodipin; Amlodipin-Mepha 5/10; Amlodipine 5; Amlodis; Amlong; Amlopin; Amlopine; Amlostin; Amlosun; Amlovas; Amlovasc; Amlozek; Amvaz; Asomex; Atecard-AM; Camlodin; Coroval; Dailyvasc; Istin; Lama; Lodip; Lodopin; Lopin; Nelod; Nopidin; Nordip; Perivasc; Pharex Amlodipine; Tenox

>  <JCHEM_ACCEPTOR_COUNT>  (1) 
5

>  <JCHEM_AVERAGE_POLARIZABILITY>  (1) 
42.29305570480537

>  <JCHEM_BIOAVAILABILITY>  (1) 
1

>  <JCHEM_DONOR_COUNT>  (1) 
2

>  <JCHEM_FORMAL_CHARGE>  (1) 
0

>  <JCHEM_GHOSE_FILTER>  (1) 
1

>  <JCHEM_IUPAC>  (1) 
3-ethyl 5-methyl 2-[(2-aminoethoxy)methyl]-4-(2-chlorophenyl)-6-methyl-1,4-dihydropyridine-3,5-dicarboxylate

>  <JCHEM_LOGP>  (1) 
1.6355954516666678

>  <JCHEM_MDDR_LIKE_RULE>  (1) 
0

>  <JCHEM_NUMBER_OF_RINGS>  (1) 
2

>  <JCHEM_PHYSIOLOGICAL_CHARGE>  (1) 
1

>  <JCHEM_PKA_STRONGEST_BASIC>  (1) 
9.445649162329046

>  <JCHEM_POLAR_SURFACE_AREA>  (1) 
99.88

>  <JCHEM_REFRACTIVITY>  (1) 
108.63810000000004

>  <JCHEM_ROTATABLE_BOND_COUNT>  (1) 
10

>  <JCHEM_RULE_OF_FIVE>  (1) 
1

>  <JCHEM_TRADITIONAL_IUPAC>  (1) 
(+-)-amlodipine

>  <JCHEM_VEBER_RULE>  (1) 
0

>  <MOLECULAR_WEIGHT>  (1) 
408.876

>  <PRODUCTS>  (1) 
AMLODIPINE and OLMESARTAN medoxomil; AMLODIPINE and VALSARTAN; Accel-amlodipine; Act Amlodipine; Ag-amlodipine; Amlobenz; Amlodipine; Amlodipine Besylate; Amlodipine Besylate 10 mg; Amlodipine Besylate 2.5 mg; Amlodipine Besylate 5 mg; Amlodipine Besylate Tablets USP; Amlodipine Besylate Tablets, 10mg; Amlodipine Besylate Tablets, 5mg; Amlodipine Besylate and Atorvastatin Calcium; Amlodipine Besylate and Benazepril HCL; Amlodipine Besylate and Benazepril Hydrochloride; Amlodipine Tablets; Amlodipine and Benazepril Hydrochloride; Amlodipine and Olmesartan Medoxomil; Amlodipine and Valsartan; Amlodipine and olmesartan Medoxomil; Amlodipine and olmesartan medoxomil; Amlodipine and valsartan; Amlodipine besylate; Amlodipine besylate and Atorvastatin calcium; Amlodipine besylate and Olmesartan medoxomil; Amlodipine besylate and Olmesartran medoxomil; Amlodipine besylate and atorvastatin calcium; Amlodipine besylate and benazepril hydrochloride; Amlodipine besylate/atorvastatin calcium; Amlodipine, Valsartan and Hydrochlorothiazide; Amlodipine, Valsartan, Hydrochlorothiazide; Amlodipine, Valsartan, and Hydrochlorothiazide; Amlodipine-odan; Amlodipine-valsartan Mylan; Amturnide; Apo-amlodipine; Apo-amlodipine-atorvastatin; Auro-amlodipine; Azor; Bio-amlodipine; Caduet; Dafiro; Dom-amlodipine; Exforge; Exforge HCT; Exforge Hct; Gd-amlodipine; Gd-amlodipine/atorvastatin; Hypertenipine; Imprida; Imprida Hct; Ipg-amlodipine; Jamp-amlodipine; Lotrel; M-amlodipine; Manda-amlodipine Tablets; Mar-amlodipine Tablets; Mint-amlodipine; Mylan-amlodipine; Mylan-amlodipine/atorvastatin; Norvasc; Norvasc Tab 10mg; Norvasc Tab 2.5mg; Norvasc Tab 5mg; Olmesartan Medoxomil / Amlodipine Besylate / Hydrochlorothiazide; Olmesartan Medoxomil, Amlodipine and Hydrochlorothiazide; Olmesartan Medoxomil, Amlodipine and Hydrochlorothiazide 20/5/12.5 mg; Olmesartan Medoxomil, Amlodipine and Hydrochlorothiazide 40/10/12.5 mg; Olmesartan Medoxomil, Amlodipine and Hydrochlorothiazide 40/10/25 mg; Olmesartan Medoxomil, Amlodipine and Hydrochlorothiazide 40/5/12.5 mg; Olmesartan Medoxomil, Amlodipine and Hydrochlorothiazide 40/5/25 mg; PHL-amlodipine; PMS-amlodipine; PMS-amlodipine Mesylate; PMS-amlodipine-atorvastatin; Pendo-amlodipine-atorvastatin; Pharma-amlodipine; Prestalia; Priva-amlodipine; Q-amlodipine; Q-gen Amlodipine; Ran-amlodipine; Ratio-amlodipine Tablets 10mg; Ratio-amlodipine Tablets 5mg; Riva-amlodipine; Sandoz Amlodipine; Septa-amlodipine; Tekamlo; Telmisartan and Amlodipine; Teva-amlodipine; Tribenzor; Twynsta; Van-amlodipine; Viacoram; Zym-amlodipine

>  <SALTS>  (1) 
Amlodipine besylate; Amlodipine maleate; Amlodipine mesylate

>  <SECONDARY_ACCESSION_NUMBERS>  (1) 
APRD00520

>  <SMILES>  (1) 
CCOC(=O)C1=C(COCCN)NC(C)=C(C1C1=CC=CC=C1Cl)C(=O)OC

>  <SYNONYMS>  (1) 
(RS)-3-ethyl 5-methyl 2-[(2-aminoethoxy)methyl]-4-(2-chlorophenyl)-6-methyl-1,4-dihydropyridine-3,5-dicarboxylate; 3-Ethyl 5-methylester, (Â±)-2-[(2-aminoethoxy)methyl]-4-(o-chlorophenyl)-1,4-dihydro-6-methyl-3,5-pyridinedicarboxylate; Amlodipine; Amlodipino; Amlodipinum

$$$$
