963
     RDKit          2D

 32 33  0  0  0  0  0  0  0  0999 V2000
    1.6500   -1.3654    0.0000 Br  0  0  0  0  0  0  0  0  0  0  0  0
    4.5080    1.1096    0.0000 O   0  0  0  0  0  0  0  0  0  0  0  0
    8.7949    0.2846    0.0000 O   0  0  0  0  0  0  0  0  0  0  0  0
    8.0804   -0.9529    0.0000 O   0  0  0  0  0  0  0  0  0  0  0  0
    5.9370    1.1096    0.0000 N   0  0  0  0  0  0  0  0  0  0  0  0
    6.6515   -0.1279    0.0000 C   0  0  0  0  0  0  0  0  0  0  0  0
    5.2224   -0.1279    0.0000 C   0  0  0  0  0  0  0  0  0  0  0  0
    5.9370    0.2846    0.0000 C   0  0  0  0  0  0  0  0  0  0  0  0
    7.3659    0.2846    0.0000 C   0  0  0  0  0  0  0  0  0  0  0  0
    6.6515   -0.9529    0.0000 C   0  0  0  0  0  0  0  0  0  0  0  0
    4.5080    0.2846    0.0000 C   0  0  0  0  0  0  0  0  0  0  0  0
    5.2224   -0.9529    0.0000 C   0  0  0  0  0  0  0  0  0  0  0  0
    3.7935   -0.1279    0.0000 C   0  0  0  0  0  0  0  0  0  0  0  0
    5.9370   -1.3654    0.0000 C   0  0  0  0  0  0  0  0  0  0  0  0
    3.7935   -0.9529    0.0000 C   0  0  0  0  0  0  0  0  0  0  0  0
    3.0791    0.2846    0.0000 C   0  0  0  0  0  0  0  0  0  0  0  0
    8.0804   -0.1279    0.0000 C   0  0  0  0  0  0  0  0  0  0  0  0
    3.0791   -1.3654    0.0000 C   0  0  0  0  0  0  0  0  0  0  0  0
    2.3645   -0.1279    0.0000 C   0  0  0  0  0  0  0  0  0  0  0  0
    2.3645   -0.9529    0.0000 C   0  0  0  0  0  0  0  0  0  0  0  0
    0.0000    0.0000    0.0000 H   0  0  0  0  0  0  0  0  0  0  0  0
    0.0000    0.0000    0.0000 H   0  0  0  0  0  0  0  0  0  0  0  0
    0.0000    0.0000    0.0000 H   0  0  0  0  0  0  0  0  0  0  0  0
    0.0000    0.0000    0.0000 H   0  0  0  0  0  0  0  0  0  0  0  0
    0.0000    0.0000    0.0000 H   0  0  0  0  0  0  0  0  0  0  0  0
    0.0000    0.0000    0.0000 H   0  0  0  0  0  0  0  0  0  0  0  0
    0.0000    0.0000    0.0000 H   0  0  0  0  0  0  0  0  0  0  0  0
    0.0000    0.0000    0.0000 H   0  0  0  0  0  0  0  0  0  0  0  0
    0.0000    0.0000    0.0000 H   0  0  0  0  0  0  0  0  0  0  0  0
    0.0000    0.0000    0.0000 H   0  0  0  0  0  0  0  0  0  0  0  0
    0.0000    0.0000    0.0000 H   0  0  0  0  0  0  0  0  0  0  0  0
    0.0000    0.0000    0.0000 H   0  0  0  0  0  0  0  0  0  0  0  0
  1 20  1  0
  2 11  2  0
  3 17  1  0
  4 17  2  0
  5  8  1  0
  6  8  2  0
  6  9  1  0
  6 10  1  0
  7  8  1  0
  7 11  1  0
  7 12  2  0
  9 17  1  0
 10 14  2  0
 11 13  1  0
 12 14  1  0
 13 15  2  0
 13 16  1  0
 15 18  1  0
 16 19  2  0
 18 20  2  0
 19 20  1  0
  3 21  1  0
  5 22  1  0
  5 23  1  0
  9 24  1  0
  9 25  1  0
 10 26  1  0
 12 27  1  0
 14 28  1  0
 15 29  1  0
 16 30  1  0
 18 31  1  0
 19 32  1  0
M  END
>  <ALOGPS_LOGP>  (1) 
3.00

>  <ALOGPS_LOGS>  (1) 
-4.42

>  <ALOGPS_SOLUBILITY>  (1) 
1.26e-02 g/l

>  <DATABASE_ID>  (1) 
DB00963

>  <DATABASE_NAME>  (1) 
drugbank

>  <DRUGBANK_ID>  (1) 
DB00963

>  <DRUG_GROUPS>  (1) 
approved

>  <EXACT_MASS>  (1) 
333.000055902

>  <FORMULA>  (1) 
C15H12BrNO3

>  <GENERIC_NAME>  (1) 
Bromfenac

>  <INCHI_IDENTIFIER>  (1) 
InChI=1S/C15H12BrNO3/c16-11-6-4-9(5-7-11)15(20)12-3-1-2-10(14(12)17)8-13(18)19/h1-7H,8,17H2,(H,18,19)

>  <INCHI_KEY>  (1) 
ZBPLOVFIXSTCRZ-UHFFFAOYSA-N

>  <INTERNATIONAL_BRANDS>  (1) 
Duract; Xibrom

>  <JCHEM_ACCEPTOR_COUNT>  (1) 
4

>  <JCHEM_AVERAGE_POLARIZABILITY>  (1) 
29.93101847388133

>  <JCHEM_BIOAVAILABILITY>  (1) 
1

>  <JCHEM_DONOR_COUNT>  (1) 
2

>  <JCHEM_FORMAL_CHARGE>  (1) 
0

>  <JCHEM_GHOSE_FILTER>  (1) 
1

>  <JCHEM_IUPAC>  (1) 
2-[2-amino-3-(4-bromobenzoyl)phenyl]acetic acid

>  <JCHEM_LOGP>  (1) 
3.660173814

>  <JCHEM_MDDR_LIKE_RULE>  (1) 
0

>  <JCHEM_NUMBER_OF_RINGS>  (1) 
2

>  <JCHEM_PHYSIOLOGICAL_CHARGE>  (1) 
-1

>  <JCHEM_PKA>  (1) 
19.40587910205938

>  <JCHEM_PKA_STRONGEST_ACIDIC>  (1) 
3.8071339684445986

>  <JCHEM_PKA_STRONGEST_BASIC>  (1) 
1.5886730056386378

>  <JCHEM_POLAR_SURFACE_AREA>  (1) 
80.39

>  <JCHEM_REFRACTIVITY>  (1) 
80.2643

>  <JCHEM_ROTATABLE_BOND_COUNT>  (1) 
4

>  <JCHEM_RULE_OF_FIVE>  (1) 
1

>  <JCHEM_TRADITIONAL_IUPAC>  (1) 
bromfenac

>  <JCHEM_VEBER_RULE>  (1) 
0

>  <MOLECULAR_WEIGHT>  (1) 
334.165

>  <PRODUCTS>  (1) 
BromSite 0.075%; Bromday; Bromfenac; Bromfenac Ophthalmic Solution, 0.09%; Prolensa; Yellox

>  <SALTS>  (1) 
Bromfenac sodium

>  <SECONDARY_ACCESSION_NUMBERS>  (1) 
APRD00831

>  <SMILES>  (1) 
NC1=C(CC(O)=O)C=CC=C1C(=O)C1=CC=C(Br)C=C1

$$$$
