51-83-2
     RDKit          2D

 26 24  0  0  0  0  0  0  0  0999 V2000
    0.4125    0.5716    0.0000 C   0  0  0  0  0  0  0  0  0  0  0  0
    0.0000    1.2860    0.0000 N   0  0  0  0  0  0  0  0  0  0  0  0
   -0.4125    2.0005    0.0000 C   0  0  0  0  0  0  0  0  0  0  0  0
   -0.7145    0.8735    0.0000 C   0  0  0  0  0  0  0  0  0  0  0  0
    0.7145    1.6985    0.0000 C   0  0  0  0  0  0  0  0  0  0  0  0
    0.0000   -0.1429    0.0000 C   0  0  0  0  0  0  0  0  0  0  0  0
    0.4125   -0.8574    0.0000 O   0  0  0  0  0  0  0  0  0  0  0  0
    0.0000   -1.5718    0.0000 C   0  0  0  0  0  0  0  0  0  0  0  0
    0.4125   -2.2863    0.0000 N   0  0  0  0  0  0  0  0  0  0  0  0
   -0.8250   -1.5718    0.0000 O   0  0  0  0  0  0  0  0  0  0  0  0
    2.9538    0.0000    0.0000 Cl  0  0  0  0  0  0  0  0  0  0  0  0
    0.0000    0.0000    0.0000 H   0  0  0  0  0  0  0  0  0  0  0  0
    0.0000    0.0000    0.0000 H   0  0  0  0  0  0  0  0  0  0  0  0
    0.0000    0.0000    0.0000 H   0  0  0  0  0  0  0  0  0  0  0  0
    0.0000    0.0000    0.0000 H   0  0  0  0  0  0  0  0  0  0  0  0
    0.0000    0.0000    0.0000 H   0  0  0  0  0  0  0  0  0  0  0  0
    0.0000    0.0000    0.0000 H   0  0  0  0  0  0  0  0  0  0  0  0
    0.0000    0.0000    0.0000 H   0  0  0  0  0  0  0  0  0  0  0  0
    0.0000    0.0000    0.0000 H   0  0  0  0  0  0  0  0  0  0  0  0
    0.0000    0.0000    0.0000 H   0  0  0  0  0  0  0  0  0  0  0  0
    0.0000    0.0000    0.0000 H   0  0  0  0  0  0  0  0  0  0  0  0
    0.0000    0.0000    0.0000 H   0  0  0  0  0  0  0  0  0  0  0  0
    0.0000    0.0000    0.0000 H   0  0  0  0  0  0  0  0  0  0  0  0
    0.0000    0.0000    0.0000 H   0  0  0  0  0  0  0  0  0  0  0  0
    0.0000    0.0000    0.0000 H   0  0  0  0  0  0  0  0  0  0  0  0
    0.0000    0.0000    0.0000 H   0  0  0  0  0  0  0  0  0  0  0  0
  1  2  1  0
  2  3  1  0
  2  4  1  0
  2  5  1  0
  1  6  1  0
  6  7  1  0
  7  8  1  0
  8  9  1  0
  8 10  2  0
  1 12  1  0
  1 13  1  0
  3 14  1  0
  3 15  1  0
  3 16  1  0
  4 17  1  0
  4 18  1  0
  4 19  1  0
  5 20  1  0
  5 21  1  0
  5 22  1  0
  6 23  1  0
  6 24  1  0
  9 25  1  0
  9 26  1  0
M  CHG  2   2   1  11  -1
M  END
>  <ALOGPS_LOGP>  (1) 
-3.55

>  <ALOGPS_LOGS>  (1) 
-2.29

>  <ALOGPS_SOLUBILITY>  (1) 
9.48e-01 g/l

>  <DATABASE_ID>  (1) 
DB00411

>  <DATABASE_NAME>  (1) 
drugbank

>  <DRUGBANK_ID>  (1) 
DB00411

>  <DRUG_GROUPS>  (1) 
approved

>  <EXACT_MASS>  (1) 
182.082205441

>  <FORMULA>  (1) 
C6H15ClN2O2

>  <GENERIC_NAME>  (1) 
Carbachol

>  <INCHI_IDENTIFIER>  (1) 
InChI=1S/C6H14N2O2.ClH/c1-8(2,3)4-5-10-6(7)9;/h4-5H2,1-3H3,(H-,7,9);1H

>  <INCHI_KEY>  (1) 
AIXAANGOTKPUOY-UHFFFAOYSA-N

>  <INTERNATIONAL_BRANDS>  (1) 
Carboptic; Isopto Carbachol; Mioticol

>  <JCHEM_ACCEPTOR_COUNT>  (1) 
1

>  <JCHEM_AVERAGE_POLARIZABILITY>  (1) 
16.016047429289113

>  <JCHEM_BIOAVAILABILITY>  (1) 
1

>  <JCHEM_DONOR_COUNT>  (1) 
1

>  <JCHEM_FORMAL_CHARGE>  (1) 
0

>  <JCHEM_GHOSE_FILTER>  (1) 
0

>  <JCHEM_IUPAC>  (1) 
2-(trimethylazaniumyl)ethyl carbamate chloride

>  <JCHEM_LOGP>  (1) 
-4.554689286138412

>  <JCHEM_MDDR_LIKE_RULE>  (1) 
0

>  <JCHEM_NUMBER_OF_RINGS>  (1) 
0

>  <JCHEM_PHYSIOLOGICAL_CHARGE>  (1) 
1

>  <JCHEM_PKA_STRONGEST_ACIDIC>  (1) 
15.226035634583454

>  <JCHEM_POLAR_SURFACE_AREA>  (1) 
52.32

>  <JCHEM_REFRACTIVITY>  (1) 
50.022200000000005

>  <JCHEM_ROTATABLE_BOND_COUNT>  (1) 
4

>  <JCHEM_RULE_OF_FIVE>  (1) 
1

>  <JCHEM_TRADITIONAL_IUPAC>  (1) 
lentine chloride

>  <JCHEM_VEBER_RULE>  (1) 
0

>  <MOLECULAR_WEIGHT>  (1) 
182.649

>  <PRODUCTS>  (1) 
Carbachol; Carbachol Injection  Liq Sc 0.25mg/ml; Carbachol Intraocular Solution 0.01%; Carbachol Tab 2mg; Carbastat; Isopto Carbachol 1.5%; Isopto Carbachol 3%; Miostat; Miostat Ophthalmic Liq 0.01%

>  <SECONDARY_ACCESSION_NUMBERS>  (1) 
APRD00845; DB02487

>  <SMILES>  (1) 
[Cl-].C[N+](C)(C)CCOC(N)=O

>  <SYNONYMS>  (1) 
(2-Carbamoyloxyethyl)trimethylammonium chloride; (2-Hydroxyethyl)trimethyl ammonium chloride carbamate; (2-Hydroxyethyl)trimethylammonium chloride carbamate; 2-((Aminocarbonyl)oxy)-N,N,N-trimethylethanaminium chloride; 2-((Aminocarbonyl)oxy)-N,N,N-trimethylethanaminum chloride; Carbachol; Carbachol chloride; Carbacholum; Carbacol; Choline carbamate chloride; Choline chloride, carbamate; Choline chlorine carbamate; Karbachol; Karbamoylcholin chlorid

$$$$
