170
     RDKit          2D

 21 22  0  0  0  0  0  0  0  0999 V2000
    3.0786   -1.6498    0.0000 O   0  0  0  0  0  0  0  0  0  0  0  0
    3.0786    1.6498    0.0000 O   0  0  0  0  0  0  0  0  0  0  0  0
    3.7929   -0.4124    0.0000 C   0  0  0  0  0  0  0  0  0  0  0  0
    3.7929    0.4124    0.0000 C   0  0  0  0  0  0  0  0  0  0  0  0
    2.3641   -0.4124    0.0000 C   0  0  0  0  0  0  0  0  0  0  0  0
    3.0786   -0.8249    0.0000 C   0  0  0  0  0  0  0  0  0  0  0  0
    3.0786    0.8249    0.0000 C   0  0  0  0  0  0  0  0  0  0  0  0
    2.3641    0.4124    0.0000 C   0  0  0  0  0  0  0  0  0  0  0  0
    4.5303   -0.8535    0.0000 C   0  0  0  0  0  0  0  0  0  0  0  0
    4.5303    0.8535    0.0000 C   0  0  0  0  0  0  0  0  0  0  0  0
    1.6498   -0.8249    0.0000 C   0  0  0  0  0  0  0  0  0  0  0  0
    5.2777   -0.4296    0.0000 C   0  0  0  0  0  0  0  0  0  0  0  0
    5.2777    0.4296    0.0000 C   0  0  0  0  0  0  0  0  0  0  0  0
    0.0000    0.0000    0.0000 H   0  0  0  0  0  0  0  0  0  0  0  0
    0.0000    0.0000    0.0000 H   0  0  0  0  0  0  0  0  0  0  0  0
    0.0000    0.0000    0.0000 H   0  0  0  0  0  0  0  0  0  0  0  0
    0.0000    0.0000    0.0000 H   0  0  0  0  0  0  0  0  0  0  0  0
    0.0000    0.0000    0.0000 H   0  0  0  0  0  0  0  0  0  0  0  0
    0.0000    0.0000    0.0000 H   0  0  0  0  0  0  0  0  0  0  0  0
    0.0000    0.0000    0.0000 H   0  0  0  0  0  0  0  0  0  0  0  0
    0.0000    0.0000    0.0000 H   0  0  0  0  0  0  0  0  0  0  0  0
  1  6  2  0
  2  7  2  0
  3  4  2  0
  3  6  1  0
  3  9  1  0
  4  7  1  0
  4 10  1  0
  5  6  1  0
  5  8  2  0
  5 11  1  0
  7  8  1  0
  9 12  2  0
 10 13  2  0
 12 13  1  0
  8 14  1  0
  9 15  1  0
 10 16  1  0
 11 17  1  0
 11 18  1  0
 11 19  1  0
 12 20  1  0
 13 21  1  0
M  END
>  <ALOGPS_LOGP>  (1) 
1.91

>  <ALOGPS_LOGS>  (1) 
-2.53

>  <ALOGPS_SOLUBILITY>  (1) 
5.04e-01 g/l

>  <DATABASE_ID>  (1) 
DB00170

>  <DATABASE_NAME>  (1) 
drugbank

>  <DRUGBANK_ID>  (1) 
DB00170

>  <DRUG_GROUPS>  (1) 
approved; nutraceutical

>  <EXACT_MASS>  (1) 
172.0524295

>  <FORMULA>  (1) 
C11H8O2

>  <GENERIC_NAME>  (1) 
Menadione

>  <INCHI_IDENTIFIER>  (1) 
InChI=1S/C11H8O2/c1-7-6-10(12)8-4-2-3-5-9(8)11(7)13/h2-6H,1H3

>  <INCHI_KEY>  (1) 
MJVAVZPDRWSRRC-UHFFFAOYSA-N

>  <INTERNATIONAL_BRANDS>  (1) 
Synkavite

>  <JCHEM_ACCEPTOR_COUNT>  (1) 
2

>  <JCHEM_AVERAGE_POLARIZABILITY>  (1) 
17.63715861491039

>  <JCHEM_BIOAVAILABILITY>  (1) 
1

>  <JCHEM_DONOR_COUNT>  (1) 
0

>  <JCHEM_FORMAL_CHARGE>  (1) 
0

>  <JCHEM_GHOSE_FILTER>  (1) 
1

>  <JCHEM_IUPAC>  (1) 
2-methyl-1,4-dihydronaphthalene-1,4-dione

>  <JCHEM_LOGP>  (1) 
1.88986844

>  <JCHEM_MDDR_LIKE_RULE>  (1) 
0

>  <JCHEM_NUMBER_OF_RINGS>  (1) 
2

>  <JCHEM_PHYSIOLOGICAL_CHARGE>  (1) 
0

>  <JCHEM_PKA_STRONGEST_ACIDIC>  (1) 
12.936644003276722

>  <JCHEM_PKA_STRONGEST_BASIC>  (1) 
-7.157932075900291

>  <JCHEM_POLAR_SURFACE_AREA>  (1) 
34.14

>  <JCHEM_REFRACTIVITY>  (1) 
50.5403

>  <JCHEM_ROTATABLE_BOND_COUNT>  (1) 
0

>  <JCHEM_RULE_OF_FIVE>  (1) 
1

>  <JCHEM_TRADITIONAL_IUPAC>  (1) 
menadione

>  <JCHEM_VEBER_RULE>  (1) 
1

>  <MOLECULAR_WEIGHT>  (1) 
172.18

>  <SALTS>  (1) 
Menadiol diphosphate

>  <SECONDARY_ACCESSION_NUMBERS>  (1) 
NUTR00062

>  <SMILES>  (1) 
CC1=CC(=O)C2=CC=CC=C2C1=O

>  <SYNONYMS>  (1) 
2-Methyl-1,4-Naphthalenedione; 2-Methyl-1,4-naphthoquinone; Vitamin K3

$$$$
