 
     RDKit          2D

 46 49  0  0  1  0  0  0  0  0999 V2000
   14.4191  -12.1888    0.0000 C   0  0  0  0  0  0  0  0  0  0  0  0
   15.1319  -12.6085    0.0000 C   0  0  0  0  0  0  0  0  0  0  0  0
   14.4191  -11.3674    0.0000 C   0  0  0  0  0  0  0  0  0  0  0  0
   15.1319  -11.6787    0.0000 C   0  0  0  0  0  0  0  0  0  0  0  0
   13.7065  -12.5977    0.0000 C   0  0  0  0  0  0  0  0  0  0  0  0
   15.8447  -12.1961    0.0000 C   0  0  0  0  0  0  0  0  0  0  0  0
   15.1680  -13.4333    0.0000 C   0  0  0  0  0  0  0  0  0  0  0  0
   15.1392  -10.9550    0.0000 C   0  0  0  0  0  0  0  0  0  0  0  0
   13.7028  -10.9550    0.0000 C   0  0  0  0  0  0  0  0  0  0  0  0
   16.5684  -11.6787    0.0000 C   0  0  0  0  0  0  0  0  0  0  0  0
   13.7425  -13.4226    0.0000 C   0  0  0  0  0  0  0  0  0  0  0  0
   16.5611  -12.6122    0.0000 N   0  0  0  0  0  0  0  0  0  0  0  0
   15.8484  -11.3711    0.0000 C   0  0  0  0  0  0  0  0  0  0  0  0
   14.4517  -13.8350    0.0000 C   0  0  0  0  0  0  0  0  0  0  0  0
   15.1392  -10.1300    0.0000 C   0  0  0  0  0  0  0  0  0  0  0  0
   13.7028  -10.1300    0.0000 C   0  0  0  0  0  0  0  0  0  0  0  0
   17.4801  -12.1381    0.0000 C   0  0  0  0  0  0  0  0  0  0  0  0
   14.4191   -9.7140    0.0000 C   0  0  0  0  0  0  0  0  0  0  0  0
   12.9864   -9.7140    0.0000 O   0  0  0  0  0  0  0  0  0  0  0  0
   18.1494  -12.5543    0.0000 C   0  0  0  0  0  0  0  0  0  0  0  0
   18.8152  -12.1815    0.0000 C   0  0  0  0  0  0  0  0  0  0  0  0
    0.0000    0.0000    0.0000 H   0  0  0  0  0  0  0  0  0  0  0  0
    0.0000    0.0000    0.0000 H   0  0  0  0  0  0  0  0  0  0  0  0
    0.0000    0.0000    0.0000 H   0  0  0  0  0  0  0  0  0  0  0  0
    0.0000    0.0000    0.0000 H   0  0  0  0  0  0  0  0  0  0  0  0
    0.0000    0.0000    0.0000 H   0  0  0  0  0  0  0  0  0  0  0  0
    0.0000    0.0000    0.0000 H   0  0  0  0  0  0  0  0  0  0  0  0
    0.0000    0.0000    0.0000 H   0  0  0  0  0  0  0  0  0  0  0  0
    0.0000    0.0000    0.0000 H   0  0  0  0  0  0  0  0  0  0  0  0
    0.0000    0.0000    0.0000 H   0  0  0  0  0  0  0  0  0  0  0  0
    0.0000    0.0000    0.0000 H   0  0  0  0  0  0  0  0  0  0  0  0
    0.0000    0.0000    0.0000 H   0  0  0  0  0  0  0  0  0  0  0  0
    0.0000    0.0000    0.0000 H   0  0  0  0  0  0  0  0  0  0  0  0
    0.0000    0.0000    0.0000 H   0  0  0  0  0  0  0  0  0  0  0  0
    0.0000    0.0000    0.0000 H   0  0  0  0  0  0  0  0  0  0  0  0
    0.0000    0.0000    0.0000 H   0  0  0  0  0  0  0  0  0  0  0  0
    0.0000    0.0000    0.0000 H   0  0  0  0  0  0  0  0  0  0  0  0
    0.0000    0.0000    0.0000 H   0  0  0  0  0  0  0  0  0  0  0  0
    0.0000    0.0000    0.0000 H   0  0  0  0  0  0  0  0  0  0  0  0
    0.0000    0.0000    0.0000 H   0  0  0  0  0  0  0  0  0  0  0  0
    0.0000    0.0000    0.0000 H   0  0  0  0  0  0  0  0  0  0  0  0
    0.0000    0.0000    0.0000 H   0  0  0  0  0  0  0  0  0  0  0  0
    0.0000    0.0000    0.0000 H   0  0  0  0  0  0  0  0  0  0  0  0
    0.0000    0.0000    0.0000 H   0  0  0  0  0  0  0  0  0  0  0  0
    0.0000    0.0000    0.0000 H   0  0  0  0  0  0  0  0  0  0  0  0
    0.0000    0.0000    0.0000 H   0  0  0  0  0  0  0  0  0  0  0  0
  4 10  1  0
  5 11  1  0
  6 12  1  0
  6 13  1  0
  7 14  1  0
  8 15  2  0
  9 16  1  0
 12 17  1  0
 15 18  1  0
 16 19  1  0
 17 20  1  0
 20 21  2  3
  8 13  1  0
 10 12  1  0
 11 14  1  0
 16 18  2  0
  1  2  1  0
  1  3  1  6
  1  4  1  0
  1  5  1  0
  2  6  1  0
  2  7  1  0
  3  8  1  0
  3  9  2  0
  2 22  1  1
  4 23  1  0
  4 24  1  0
  5 25  1  0
  5 26  1  0
  6 27  1  6
  7 28  1  0
  7 29  1  0
  9 30  1  0
 10 31  1  0
 10 32  1  0
 11 33  1  0
 11 34  1  0
 13 35  1  0
 13 36  1  0
 14 37  1  0
 14 38  1  0
 15 39  1  0
 17 40  1  0
 17 41  1  0
 18 42  1  0
 19 43  1  0
 20 44  1  0
 21 45  1  0
 21 46  1  0
M  END
>  <ALOGPS_LOGP>  (1) 
3.91

>  <ALOGPS_LOGS>  (1) 
-4.05

>  <ALOGPS_SOLUBILITY>  (1) 
2.52e-02 g/l

>  <DATABASE_ID>  (1) 
DB00504

>  <DATABASE_NAME>  (1) 
drugbank

>  <DRUGBANK_ID>  (1) 
DB00504

>  <DRUG_GROUPS>  (1) 
approved

>  <EXACT_MASS>  (1) 
283.193614427

>  <FORMULA>  (1) 
C19H25NO

>  <GENERIC_NAME>  (1) 
Levallorphan

>  <INCHI_IDENTIFIER>  (1) 
InChI=1S/C19H25NO/c1-2-10-20-11-9-19-8-4-3-5-16(19)18(20)12-14-6-7-15(21)13-17(14)19/h2,6-7,13,16,18,21H,1,3-5,8-12H2/t16-,18+,19+/m0/s1

>  <INCHI_KEY>  (1) 
OZYUPQUCAUTOBP-QXAKKESOSA-N

>  <INTERNATIONAL_BRANDS>  (1) 
Lorfan

>  <JCHEM_ACCEPTOR_COUNT>  (1) 
2

>  <JCHEM_AVERAGE_POLARIZABILITY>  (1) 
32.67748687345353

>  <JCHEM_BIOAVAILABILITY>  (1) 
1

>  <JCHEM_DONOR_COUNT>  (1) 
1

>  <JCHEM_FORMAL_CHARGE>  (1) 
0

>  <JCHEM_GHOSE_FILTER>  (1) 
1

>  <JCHEM_IUPAC>  (1) 
(1R,9R,10R)-17-(prop-2-en-1-yl)-17-azatetracyclo[7.5.3.0¹,¹⁰.0²,⁷]heptadeca-2(7),3,5-trien-4-ol

>  <JCHEM_LOGP>  (1) 
3.755367301791382

>  <JCHEM_MDDR_LIKE_RULE>  (1) 
0

>  <JCHEM_NUMBER_OF_RINGS>  (1) 
4

>  <JCHEM_PHYSIOLOGICAL_CHARGE>  (1) 
1

>  <JCHEM_PKA_STRONGEST_ACIDIC>  (1) 
10.362761115328947

>  <JCHEM_PKA_STRONGEST_BASIC>  (1) 
9.40708250750897

>  <JCHEM_POLAR_SURFACE_AREA>  (1) 
23.47

>  <JCHEM_REFRACTIVITY>  (1) 
87.2436

>  <JCHEM_ROTATABLE_BOND_COUNT>  (1) 
2

>  <JCHEM_RULE_OF_FIVE>  (1) 
1

>  <JCHEM_TRADITIONAL_IUPAC>  (1) 
levallorphan

>  <JCHEM_VEBER_RULE>  (1) 
1

>  <MOLECULAR_WEIGHT>  (1) 
283.4079

>  <SALTS>  (1) 
Levallorphan Tartrate

>  <SECONDARY_ACCESSION_NUMBERS>  (1) 
APRD00733

>  <SMILES>  (1) 
[H][C@@]12CCCC[C@@]11CCN(CC=C)[C@@H]2CC2=C1C=C(O)C=C2

>  <SYNONYMS>  (1) 
Levallorphan; Lévallorphane; Levallorphanum; Levalorfano

$$$$
