448
     RDKit          2D

 39 41  0  0  1  0  0  0  0  0999 V2000
    5.1662    1.2111    0.0000 S   0  0  0  0  0  0  0  0  0  0  0  0
    8.5768   -2.0593    0.0000 F   0  0  0  0  0  0  0  0  0  0  0  0
   10.0057   -1.2343    0.0000 F   0  0  0  0  0  0  0  0  0  0  0  0
    9.7038   -2.3613    0.0000 F   0  0  0  0  0  0  0  0  0  0  0  0
    8.0537   -0.9323    0.0000 O   0  0  0  0  0  0  0  0  0  0  0  0
    5.5787    1.9257    0.0000 O   0  0  0  0  0  0  0  0  0  0  0  0
    3.8597    1.8751    0.0000 N   0  0  0  0  0  0  0  0  0  0  0  0
    3.8597    0.5472    0.0000 N   0  0  0  0  0  0  0  0  0  0  0  0
    6.8162    1.2111    0.0000 N   0  0  0  0  0  0  0  0  0  0  0  0
    5.5787    0.4967    0.0000 C   0  0  0  0  0  0  0  0  0  0  0  0
    6.4037    0.4967    0.0000 C   0  0  0  0  0  0  0  0  0  0  0  0
    6.8162   -0.2178    0.0000 C   0  0  0  0  0  0  0  0  0  0  0  0
    4.3412    1.2111    0.0000 C   0  0  0  0  0  0  0  0  0  0  0  0
    3.0791    1.6236    0.0000 C   0  0  0  0  0  0  0  0  0  0  0  0
    3.0791    0.7986    0.0000 C   0  0  0  0  0  0  0  0  0  0  0  0
    7.6412   -0.2178    0.0000 C   0  0  0  0  0  0  0  0  0  0  0  0
    6.4037   -0.9323    0.0000 C   0  0  0  0  0  0  0  0  0  0  0  0
    2.3645    2.0361    0.0000 C   0  0  0  0  0  0  0  0  0  0  0  0
    8.0537    0.4967    0.0000 C   0  0  0  0  0  0  0  0  0  0  0  0
    2.3645    0.3861    0.0000 C   0  0  0  0  0  0  0  0  0  0  0  0
    7.6412    1.2111    0.0000 C   0  0  0  0  0  0  0  0  0  0  0  0
    1.6500    1.6236    0.0000 C   0  0  0  0  0  0  0  0  0  0  0  0
    1.6500    0.7986    0.0000 C   0  0  0  0  0  0  0  0  0  0  0  0
    8.8788   -0.9323    0.0000 C   0  0  0  0  0  0  0  0  0  0  0  0
    9.2913   -1.6468    0.0000 C   0  0  0  0  0  0  0  0  0  0  0  0
    0.0000    0.0000    0.0000 H   0  0  0  0  0  0  0  0  0  0  0  0
    0.0000    0.0000    0.0000 H   0  0  0  0  0  0  0  0  0  0  0  0
    0.0000    0.0000    0.0000 H   0  0  0  0  0  0  0  0  0  0  0  0
    0.0000    0.0000    0.0000 H   0  0  0  0  0  0  0  0  0  0  0  0
    0.0000    0.0000    0.0000 H   0  0  0  0  0  0  0  0  0  0  0  0
    0.0000    0.0000    0.0000 H   0  0  0  0  0  0  0  0  0  0  0  0
    0.0000    0.0000    0.0000 H   0  0  0  0  0  0  0  0  0  0  0  0
    0.0000    0.0000    0.0000 H   0  0  0  0  0  0  0  0  0  0  0  0
    0.0000    0.0000    0.0000 H   0  0  0  0  0  0  0  0  0  0  0  0
    0.0000    0.0000    0.0000 H   0  0  0  0  0  0  0  0  0  0  0  0
    0.0000    0.0000    0.0000 H   0  0  0  0  0  0  0  0  0  0  0  0
    0.0000    0.0000    0.0000 H   0  0  0  0  0  0  0  0  0  0  0  0
    0.0000    0.0000    0.0000 H   0  0  0  0  0  0  0  0  0  0  0  0
    0.0000    0.0000    0.0000 H   0  0  0  0  0  0  0  0  0  0  0  0
  1  6  2  0
  1 10  1  0
  1 13  1  0
  2 25  1  0
  3 25  1  0
  4 25  1  0
  5 16  1  0
  5 24  1  0
  7 13  1  0
  7 14  1  0
  8 13  2  0
  8 15  1  0
  9 11  2  0
  9 21  1  0
 10 11  1  0
 11 12  1  0
 12 16  2  0
 12 17  1  0
 14 15  2  0
 14 18  1  0
 15 20  1  0
 16 19  1  0
 18 22  2  0
 19 21  2  0
 20 23  2  0
 22 23  1  0
 24 25  1  0
  7 26  1  0
 10 27  1  0
 10 28  1  0
 17 29  1  0
 17 30  1  0
 17 31  1  0
 18 32  1  0
 19 33  1  0
 20 34  1  0
 21 35  1  0
 22 36  1  0
 23 37  1  0
 24 38  1  0
 24 39  1  0
M  END
>  <ALOGPS_LOGP>  (1) 
2.84

>  <ALOGPS_LOGS>  (1) 
-3.17

>  <ALOGPS_SOLUBILITY>  (1) 
2.50e-01 g/l

>  <DATABASE_ID>  (1) 
DB00448

>  <DATABASE_NAME>  (1) 
drugbank

>  <DRUGBANK_ID>  (1) 
DB00448

>  <DRUG_GROUPS>  (1) 
approved; investigational

>  <EXACT_MASS>  (1) 
369.075882012

>  <FORMULA>  (1) 
C16H14F3N3O2S

>  <GENERIC_NAME>  (1) 
Lansoprazole

>  <INCHI_IDENTIFIER>  (1) 
InChI=1S/C16H14F3N3O2S/c1-10-13(20-7-6-14(10)24-9-16(17,18)19)8-25(23)15-21-11-4-2-3-5-12(11)22-15/h2-7H,8-9H2,1H3,(H,21,22)

>  <INCHI_KEY>  (1) 
MJIHNNLFOKEZEW-UHFFFAOYSA-N

>  <INTERNATIONAL_BRANDS>  (1) 
Agopton; Bamalite; Lansoloc; Lanzol; Lanzopral; Lanzopran; Limpidex; Monolitum; Ogast; Ogastro; Opiren; Prevacid 24HR; Prevacid IV; Prosogan; Takepron; Ulpax; Zoprol; Zoton

>  <JCHEM_ACCEPTOR_COUNT>  (1) 
4

>  <JCHEM_AVERAGE_POLARIZABILITY>  (1) 
34.59069533683164

>  <JCHEM_BIOAVAILABILITY>  (1) 
1

>  <JCHEM_DONOR_COUNT>  (1) 
1

>  <JCHEM_FORMAL_CHARGE>  (1) 
0

>  <JCHEM_GHOSE_FILTER>  (1) 
1

>  <JCHEM_IUPAC>  (1) 
2-{[3-methyl-4-(2,2,2-trifluoroethoxy)pyridin-2-yl]methanesulfinyl}-1H-1,3-benzodiazole

>  <JCHEM_LOGP>  (1) 
3.0328552366666672

>  <JCHEM_MDDR_LIKE_RULE>  (1) 
1

>  <JCHEM_NUMBER_OF_RINGS>  (1) 
3

>  <JCHEM_PHYSIOLOGICAL_CHARGE>  (1) 
0

>  <JCHEM_PKA>  (1) 
17.3027433038363

>  <JCHEM_PKA_STRONGEST_ACIDIC>  (1) 
9.346710249119909

>  <JCHEM_PKA_STRONGEST_BASIC>  (1) 
4.162938764258435

>  <JCHEM_POLAR_SURFACE_AREA>  (1) 
67.87

>  <JCHEM_REFRACTIVITY>  (1) 
87.608

>  <JCHEM_ROTATABLE_BOND_COUNT>  (1) 
6

>  <JCHEM_RULE_OF_FIVE>  (1) 
1

>  <JCHEM_TRADITIONAL_IUPAC>  (1) 
lansoprazole

>  <JCHEM_VEBER_RULE>  (1) 
0

>  <MOLECULAR_WEIGHT>  (1) 
369.361

>  <PRODUCTS>  (1) 
Apo-lansoprazole; Basic Care Lansoprazole; Berkley and Jensen Lansoprazole; CareOne Acid Reducer; CareOne Lansoprazole; Dg Health Lansoprazole; Dom-lansoprazole; Equaline Lansoprazole; Equate Lansoprazole Delayed Release; Exchange Select Lansoprazole; Good Neighbor Pharmacy Lansoprazole; Good Sense lansoprazole; Harris Teeter Acid Reducer; Health Mart Lansoprazole; Healthy Accents Lansoprazole; Heartburn Relief 24 hour; Hp-pac; Kirkland Signature Lansoprazole Delayed Release; Lansoprazole; Lansoprazole 24 HR; Lansoprazole Heartburn Relief 24 Hour; Lansoprazole, Amoxicillin, Clarithromycin; Lansoprazole, Amoxicillin, and Clarithromycin; Lansoprazole-15; Lansoprazole-30; Leader Lansoprazole; Members Mark Lansoprazole; Mylan-lansoprazole; Ntp-lansoprazole; PMS-lansoprazole; Preferred Plus Lansoprazole; Prevacid; Prevacid 24 HR; Prevacid Fastab; Prevacid SoluTab; Q-lansoprazole; Ran-lansoprazole; Riva-lansoprazole; Rugby Heartburn Treatment; Sandoz Lansoprazole; ShopRite Lansoprazole; Signature Care Acid Reducer; Simply Right Lansoprazole; Smart Sense Acid Reducer; Smart Sense Lansoprazole; Sound Body Acid Reducer; Sunmark Lansoprazole; Teva-lansoprazole; Topcare Lansoprazole; Up and Up Lansoprazole; Well At Walgreens Lansoprazole

>  <SECONDARY_ACCESSION_NUMBERS>  (1) 
APRD00077

>  <SMILES>  (1) 
CC1=C(OCC(F)(F)F)C=CN=C1CS(=O)C1=NC2=CC=CC=C2N1

>  <SYNONYMS>  (1) 
Lansoprazol; Lansoprazole; Lansoprazolum

$$$$
