 
     RDKit          2D

 79 80  0  0  1  0  0  0  0  0999 V2000
   10.8277   -9.6141    0.0000 C   0  0  0  0  0  0  0  0  0  0  0  0
   10.8277  -10.4413    0.0000 C   0  0  0  0  0  0  0  0  0  0  0  0
   11.5422  -10.8528    0.0000 C   0  0  0  0  0  0  0  0  0  0  0  0
   12.2568  -10.4413    0.0000 O   0  0  0  0  0  0  0  0  0  0  0  0
   12.2568   -9.6141    0.0000 C   0  0  0  0  0  0  0  0  0  0  0  0
   11.5422   -9.1984    0.0000 C   0  0  0  0  0  0  0  0  0  0  0  0
    9.4019  -10.4454    0.0000 C   0  0  0  0  0  0  0  0  0  0  0  0
   10.1170  -10.8612    0.0000 C   0  0  0  0  0  0  0  0  0  0  0  0
   10.1138   -9.2047    0.0000 O   0  0  0  0  0  0  0  0  0  0  0  0
   11.5343   -8.3711    0.0000 O   0  0  0  0  0  0  0  0  0  0  0  0
   12.9686   -9.1984    0.0000 C   0  0  0  0  0  0  0  0  0  0  0  0
   13.6835   -9.6058    0.0000 C   0  0  0  0  0  0  0  0  0  0  0  0
   14.3985   -9.1943    0.0000 C   0  0  0  0  0  0  0  0  0  0  0  0
   15.1135   -9.6016    0.0000 C   0  0  0  0  0  0  0  0  0  0  0  0
   15.8243   -9.1901    0.0000 O   0  0  0  0  0  0  0  0  0  0  0  0
   16.5392   -9.5975    0.0000 C   0  0  0  0  0  0  0  0  0  0  0  0
   17.2542   -9.1859    0.0000 C   0  0  0  0  0  0  0  0  0  0  0  0
   17.9692   -9.5933    0.0000 C   0  0  0  0  0  0  0  0  0  0  0  0
   18.6841   -9.1818    0.0000 C   0  0  0  0  0  0  0  0  0  0  0  0
   19.3991   -9.5892    0.0000 C   0  0  0  0  0  0  0  0  0  0  0  0
   20.1141   -9.1777    0.0000 C   0  0  0  0  0  0  0  0  0  0  0  0
   20.8291   -9.5850    0.0000 C   0  0  0  0  0  0  0  0  0  0  0  0
   21.5398   -9.1734    0.0000 C   0  0  0  0  0  0  0  0  0  0  0  0
   22.2549   -9.5809    0.0000 C   0  0  0  0  0  0  0  0  0  0  0  0
   22.9699   -9.1652    0.0000 O   0  0  0  0  0  0  0  0  0  0  0  0
   13.6853  -10.4330    0.0000 C   0  0  0  0  0  0  0  0  0  0  0  0
   15.1153  -10.4288    0.0000 O   0  0  0  0  0  0  0  0  0  0  0  0
   22.2585  -10.4080    0.0000 O   0  0  0  0  0  0  0  0  0  0  0  0
    8.6845  -10.8602    0.0000 C   0  0  0  0  0  0  0  0  0  0  0  0
    7.9680  -10.4437    0.0000 C   0  0  0  0  0  0  0  0  0  0  0  0
    7.2506  -10.8585    0.0000 C   0  0  0  0  0  0  0  0  0  0  0  0
    6.5341  -10.4420    0.0000 C   0  0  0  0  0  0  0  0  0  0  0  0
    9.4144  -11.2352    0.0000 O   0  0  0  0  0  0  0  0  0  0  0  0
    7.2496  -11.6858    0.0000 O   0  0  0  0  0  0  0  0  0  0  0  0
    7.9690   -9.6166    0.0000 C   0  0  0  0  0  0  0  0  0  0  0  0
    0.0000    0.0000    0.0000 H   0  0  0  0  0  0  0  0  0  0  0  0
    0.0000    0.0000    0.0000 H   0  0  0  0  0  0  0  0  0  0  0  0
    0.0000    0.0000    0.0000 H   0  0  0  0  0  0  0  0  0  0  0  0
    0.0000    0.0000    0.0000 H   0  0  0  0  0  0  0  0  0  0  0  0
    0.0000    0.0000    0.0000 H   0  0  0  0  0  0  0  0  0  0  0  0
    0.0000    0.0000    0.0000 H   0  0  0  0  0  0  0  0  0  0  0  0
    0.0000    0.0000    0.0000 H   0  0  0  0  0  0  0  0  0  0  0  0
    0.0000    0.0000    0.0000 H   0  0  0  0  0  0  0  0  0  0  0  0
    0.0000    0.0000    0.0000 H   0  0  0  0  0  0  0  0  0  0  0  0
    0.0000    0.0000    0.0000 H   0  0  0  0  0  0  0  0  0  0  0  0
    0.0000    0.0000    0.0000 H   0  0  0  0  0  0  0  0  0  0  0  0
    0.0000    0.0000    0.0000 H   0  0  0  0  0  0  0  0  0  0  0  0
    0.0000    0.0000    0.0000 H   0  0  0  0  0  0  0  0  0  0  0  0
    0.0000    0.0000    0.0000 H   0  0  0  0  0  0  0  0  0  0  0  0
    0.0000    0.0000    0.0000 H   0  0  0  0  0  0  0  0  0  0  0  0
    0.0000    0.0000    0.0000 H   0  0  0  0  0  0  0  0  0  0  0  0
    0.0000    0.0000    0.0000 H   0  0  0  0  0  0  0  0  0  0  0  0
    0.0000    0.0000    0.0000 H   0  0  0  0  0  0  0  0  0  0  0  0
    0.0000    0.0000    0.0000 H   0  0  0  0  0  0  0  0  0  0  0  0
    0.0000    0.0000    0.0000 H   0  0  0  0  0  0  0  0  0  0  0  0
    0.0000    0.0000    0.0000 H   0  0  0  0  0  0  0  0  0  0  0  0
    0.0000    0.0000    0.0000 H   0  0  0  0  0  0  0  0  0  0  0  0
    0.0000    0.0000    0.0000 H   0  0  0  0  0  0  0  0  0  0  0  0
    0.0000    0.0000    0.0000 H   0  0  0  0  0  0  0  0  0  0  0  0
    0.0000    0.0000    0.0000 H   0  0  0  0  0  0  0  0  0  0  0  0
    0.0000    0.0000    0.0000 H   0  0  0  0  0  0  0  0  0  0  0  0
    0.0000    0.0000    0.0000 H   0  0  0  0  0  0  0  0  0  0  0  0
    0.0000    0.0000    0.0000 H   0  0  0  0  0  0  0  0  0  0  0  0
    0.0000    0.0000    0.0000 H   0  0  0  0  0  0  0  0  0  0  0  0
    0.0000    0.0000    0.0000 H   0  0  0  0  0  0  0  0  0  0  0  0
    0.0000    0.0000    0.0000 H   0  0  0  0  0  0  0  0  0  0  0  0
    0.0000    0.0000    0.0000 H   0  0  0  0  0  0  0  0  0  0  0  0
    0.0000    0.0000    0.0000 H   0  0  0  0  0  0  0  0  0  0  0  0
    0.0000    0.0000    0.0000 H   0  0  0  0  0  0  0  0  0  0  0  0
    0.0000    0.0000    0.0000 H   0  0  0  0  0  0  0  0  0  0  0  0
    0.0000    0.0000    0.0000 H   0  0  0  0  0  0  0  0  0  0  0  0
    0.0000    0.0000    0.0000 H   0  0  0  0  0  0  0  0  0  0  0  0
    0.0000    0.0000    0.0000 H   0  0  0  0  0  0  0  0  0  0  0  0
    0.0000    0.0000    0.0000 H   0  0  0  0  0  0  0  0  0  0  0  0
    0.0000    0.0000    0.0000 H   0  0  0  0  0  0  0  0  0  0  0  0
    0.0000    0.0000    0.0000 H   0  0  0  0  0  0  0  0  0  0  0  0
    0.0000    0.0000    0.0000 H   0  0  0  0  0  0  0  0  0  0  0  0
    0.0000    0.0000    0.0000 H   0  0  0  0  0  0  0  0  0  0  0  0
    0.0000    0.0000    0.0000 H   0  0  0  0  0  0  0  0  0  0  0  0
 31 32  1  1
  3  4  1  0
  7 33  1  0
 29 33  1  0
  4  5  1  0
 31 34  1  0
  5  6  1  0
 30 35  1  6
  7  8  1  6
  2  8  1  6
  1  9  1  1
  6 10  1  1
  5 11  1  6
 11 12  1  0
 12 13  2  0
 13 14  1  0
 14 15  1  0
 15 16  1  0
 16 17  1  0
 17 18  1  0
 18 19  1  0
 19 20  1  0
 20 21  1  0
 21 22  1  0
 22 23  1  0
 23 24  1  0
 24 25  1  0
 12 26  1  0
 14 27  2  0
 24 28  2  0
  7 29  1  0
  1  2  1  0
 29 30  1  0
  1  6  1  0
 30 31  1  0
  2  3  1  0
  1 36  1  0
  2 37  1  0
  3 38  1  0
  3 39  1  0
  5 40  1  0
  6 41  1  0
  7 42  1  0
  8 43  1  0
  8 44  1  0
  9 45  1  0
 10 46  1  0
 11 47  1  0
 11 48  1  0
 13 49  1  0
 16 50  1  0
 16 51  1  0
 17 52  1  0
 17 53  1  0
 18 54  1  0
 18 55  1  0
 19 56  1  0
 19 57  1  0
 20 58  1  0
 20 59  1  0
 21 60  1  0
 21 61  1  0
 22 62  1  0
 22 63  1  0
 23 64  1  0
 23 65  1  0
 25 66  1  0
 26 67  1  0
 26 68  1  0
 26 69  1  0
 29 70  1  6
 30 71  1  0
 31 72  1  0
 32 73  1  0
 32 74  1  0
 32 75  1  0
 34 76  1  0
 35 77  1  0
 35 78  1  0
 35 79  1  0
M  END
>  <ALOGPS_LOGP>  (1) 
2.25

>  <ALOGPS_LOGS>  (1) 
-4.28

>  <ALOGPS_SOLUBILITY>  (1) 
2.65e-02 g/l

>  <DATABASE_ID>  (1) 
DB00410

>  <DATABASE_NAME>  (1) 
drugbank

>  <DRUGBANK_ID>  (1) 
DB00410

>  <DRUG_GROUPS>  (1) 
approved; investigational; vet_approved

>  <EXACT_MASS>  (1) 
500.298533006

>  <FORMULA>  (1) 
C26H44O9

>  <GENERIC_NAME>  (1) 
Mupirocin

>  <INCHI_IDENTIFIER>  (1) 
InChI=1S/C26H44O9/c1-16(13-23(30)33-11-9-7-5-4-6-8-10-22(28)29)12-20-25(32)24(31)19(15-34-20)14-21-26(35-21)17(2)18(3)27/h13,17-21,24-27,31-32H,4-12,14-15H2,1-3H3,(H,28,29)/b16-13+/t17-,18-,19-,20-,21-,24+,25-,26-/m0/s1

>  <INCHI_KEY>  (1) 
MINDHVHHQZYEEK-HBBNESRFSA-N

>  <INTERNATIONAL_BRANDS>  (1) 
Bactroban Nasal; Plasimine; Spectroderm; T-Bact; Turixin

>  <JCHEM_ACCEPTOR_COUNT>  (1) 
8

>  <JCHEM_AVERAGE_POLARIZABILITY>  (1) 
55.502431828641676

>  <JCHEM_BIOAVAILABILITY>  (1) 
0

>  <JCHEM_DONOR_COUNT>  (1) 
4

>  <JCHEM_FORMAL_CHARGE>  (1) 
0

>  <JCHEM_GHOSE_FILTER>  (1) 
0

>  <JCHEM_IUPAC>  (1) 
9-{[(2E)-4-[(2S,3R,4R,5S)-3,4-dihydroxy-5-{[(2S,3S)-3-[(2S,3S)-3-hydroxybutan-2-yl]oxiran-2-yl]methyl}oxan-2-yl]-3-methylbut-2-enoyl]oxy}nonanoic acid

>  <JCHEM_LOGP>  (1) 
2.4513256756666664

>  <JCHEM_MDDR_LIKE_RULE>  (1) 
0

>  <JCHEM_NUMBER_OF_RINGS>  (1) 
2

>  <JCHEM_PHYSIOLOGICAL_CHARGE>  (1) 
-1

>  <JCHEM_PKA>  (1) 
13.10476992797675

>  <JCHEM_PKA_STRONGEST_ACIDIC>  (1) 
4.834071699171744

>  <JCHEM_PKA_STRONGEST_BASIC>  (1) 
-2.71476683945935

>  <JCHEM_POLAR_SURFACE_AREA>  (1) 
146.04999999999998

>  <JCHEM_REFRACTIVITY>  (1) 
129.3941

>  <JCHEM_ROTATABLE_BOND_COUNT>  (1) 
17

>  <JCHEM_RULE_OF_FIVE>  (1) 
0

>  <JCHEM_TRADITIONAL_IUPAC>  (1) 
mupirocin

>  <JCHEM_VEBER_RULE>  (1) 
0

>  <MOLECULAR_WEIGHT>  (1) 
500.6222

>  <PRODUCTS>  (1) 
Bactroban; Bactroban Cream; Bactroban Nasal Ointment; Centany; Centany AT; Mupirocin; Mupirocin 2%; Mupirocin Calcium; Taro-mupirocin

>  <SALTS>  (1) 
Mupirocin calcium

>  <SECONDARY_ACCESSION_NUMBERS>  (1) 
APRD00162

>  <SMILES>  (1) 
C[C@H](O)[C@H](C)[C@@H]1O[C@H]1C[C@H]1CO[C@@H](C\C(C)=C\C(=O)OCCCCCCCCC(O)=O)[C@H](O)[C@@H]1O

>  <SYNONYMS>  (1) 
9-[(E)-4-[(2S,3R,4R,5S)-3,4-dihydroxy-5-[[(2S,3S)-3- [(2S,3S)-3-hydroxybutan-2-yl]oxiran-2-yl]methyl] oxan-2-yl]-3-methylbut-2-enoyl]oxynonanoic acid; Mupirocine; Mupirocinum; Pseudomonic acid

$$$$
