484
     RDKit          2D

 27 29  0  0  0  0  0  0  0  0999 V2000
    5.0992   -1.2518    0.0000 Br  0  0  0  0  0  0  0  0  0  0  0  0
    2.2020   -0.3499    0.0000 N   0  0  0  0  0  0  0  0  0  0  0  0
    3.6702   -0.4268    0.0000 N   0  0  0  0  0  0  0  0  0  0  0  0
    2.8694    0.8062    0.0000 N   0  0  0  0  0  0  0  0  0  0  0  0
    6.5511   -0.4554    0.0000 N   0  0  0  0  0  0  0  0  0  0  0  0
    6.5511    1.2518    0.0000 N   0  0  0  0  0  0  0  0  0  0  0  0
    1.6500    0.2633    0.0000 C   0  0  0  0  0  0  0  0  0  0  0  0
    2.0625    0.9777    0.0000 C   0  0  0  0  0  0  0  0  0  0  0  0
    2.9557   -0.0143    0.0000 C   0  0  0  0  0  0  0  0  0  0  0  0
    4.3846   -0.0143    0.0000 C   0  0  0  0  0  0  0  0  0  0  0  0
    5.0992   -0.4268    0.0000 C   0  0  0  0  0  0  0  0  0  0  0  0
    5.8136   -0.0143    0.0000 C   0  0  0  0  0  0  0  0  0  0  0  0
    4.3846    0.8107    0.0000 C   0  0  0  0  0  0  0  0  0  0  0  0
    5.8136    0.8107    0.0000 C   0  0  0  0  0  0  0  0  0  0  0  0
    5.0992    1.2232    0.0000 C   0  0  0  0  0  0  0  0  0  0  0  0
    7.2986   -0.0314    0.0000 C   0  0  0  0  0  0  0  0  0  0  0  0
    7.2986    0.8279    0.0000 C   0  0  0  0  0  0  0  0  0  0  0  0
    0.0000    0.0000    0.0000 H   0  0  0  0  0  0  0  0  0  0  0  0
    0.0000    0.0000    0.0000 H   0  0  0  0  0  0  0  0  0  0  0  0
    0.0000    0.0000    0.0000 H   0  0  0  0  0  0  0  0  0  0  0  0
    0.0000    0.0000    0.0000 H   0  0  0  0  0  0  0  0  0  0  0  0
    0.0000    0.0000    0.0000 H   0  0  0  0  0  0  0  0  0  0  0  0
    0.0000    0.0000    0.0000 H   0  0  0  0  0  0  0  0  0  0  0  0
    0.0000    0.0000    0.0000 H   0  0  0  0  0  0  0  0  0  0  0  0
    0.0000    0.0000    0.0000 H   0  0  0  0  0  0  0  0  0  0  0  0
    0.0000    0.0000    0.0000 H   0  0  0  0  0  0  0  0  0  0  0  0
    0.0000    0.0000    0.0000 H   0  0  0  0  0  0  0  0  0  0  0  0
  1 11  1  0
  2  7  1  0
  2  9  1  0
  3  9  1  0
  3 10  1  0
  4  8  1  0
  4  9  2  0
  5 12  2  0
  5 16  1  0
  6 14  2  0
  6 17  1  0
  7  8  1  0
 10 11  2  0
 10 13  1  0
 11 12  1  0
 12 14  1  0
 13 15  2  0
 14 15  1  0
 16 17  2  0
  2 18  1  0
  3 19  1  0
  7 20  1  0
  7 21  1  0
  8 22  1  0
  8 23  1  0
 13 24  1  0
 15 25  1  0
 16 26  1  0
 17 27  1  0
M  END
>  <ALOGPS_LOGP>  (1) 
1.27

>  <ALOGPS_LOGS>  (1) 
-3.28

>  <ALOGPS_SOLUBILITY>  (1) 
1.54e-01 g/l

>  <DATABASE_ID>  (1) 
DB00484

>  <DATABASE_NAME>  (1) 
drugbank

>  <DRUGBANK_ID>  (1) 
DB00484

>  <DRUG_GROUPS>  (1) 
approved

>  <EXACT_MASS>  (1) 
291.011957992

>  <FORMULA>  (1) 
C11H10BrN5

>  <GENERIC_NAME>  (1) 
Brimonidine

>  <INCHI_IDENTIFIER>  (1) 
InChI=1S/C11H10BrN5/c12-9-7(17-11-15-5-6-16-11)1-2-8-10(9)14-4-3-13-8/h1-4H,5-6H2,(H2,15,16,17)

>  <INCHI_KEY>  (1) 
XYLJNLCSTIOKRM-UHFFFAOYSA-N

>  <JCHEM_ACCEPTOR_COUNT>  (1) 
5

>  <JCHEM_AVERAGE_POLARIZABILITY>  (1) 
25.74393406400084

>  <JCHEM_BIOAVAILABILITY>  (1) 
1

>  <JCHEM_DONOR_COUNT>  (1) 
2

>  <JCHEM_FORMAL_CHARGE>  (1) 
0

>  <JCHEM_GHOSE_FILTER>  (1) 
1

>  <JCHEM_IUPAC>  (1) 
5-bromo-N-(4,5-dihydro-1H-imidazol-2-yl)quinoxalin-6-amine

>  <JCHEM_LOGP>  (1) 
1.3715845303333332

>  <JCHEM_MDDR_LIKE_RULE>  (1) 
0

>  <JCHEM_NUMBER_OF_RINGS>  (1) 
3

>  <JCHEM_PHYSIOLOGICAL_CHARGE>  (1) 
1

>  <JCHEM_PKA_STRONGEST_BASIC>  (1) 
8.31635216122091

>  <JCHEM_POLAR_SURFACE_AREA>  (1) 
62.2

>  <JCHEM_REFRACTIVITY>  (1) 
68.4944

>  <JCHEM_ROTATABLE_BOND_COUNT>  (1) 
1

>  <JCHEM_RULE_OF_FIVE>  (1) 
1

>  <JCHEM_TRADITIONAL_IUPAC>  (1) 
brimonidine

>  <JCHEM_VEBER_RULE>  (1) 
0

>  <MOLECULAR_WEIGHT>  (1) 
292.135

>  <PRODUCTS>  (1) 
Alphagan; Alphagan P; Apo-brimonidine; Apo-brimonidine-timop; Brimonidine; Brimonidine Ophthalmic; Brimonidine P; Brimonidine Tartrate; Brimonidine Tartrate Ophthalmic Solution 0.2%; Brimonidine Tartrate Ophthalmic Solution, 0.2%; Combigan; Dom-brimonidine; Jamp-brimonidine; Mirvaso; Onreltea; PMS-brimonidine; Ratio-brimonidine; Sandoz Brimonidine; Simbrinza

>  <SALTS>  (1) 
Brimonidine Tartrate

>  <SECONDARY_ACCESSION_NUMBERS>  (1) 
APRD00034

>  <SMILES>  (1) 
BrC1=C(NC2=NCCN2)C=CC2=NC=CN=C12

>  <SYNONYMS>  (1) 
Bromoxidine

$$$$
