2092
     RDKit          2D

 55 57  0  0  1  0  0  0  0  0999 V2000
    2.2021    0.5338    0.0000 O   0  0  0  0  0  0  0  0  0  0  0  0
    3.6703   -0.3681    0.0000 O   0  0  0  0  0  0  0  0  0  0  0  0
   11.5841   -0.8006    0.0000 O   0  0  0  0  0  0  0  0  0  0  0  0
   11.5841    0.8893    0.0000 O   0  0  0  0  0  0  0  0  0  0  0  0
    4.3847    0.8694    0.0000 N   0  0  0  0  0  0  0  0  0  0  0  0
    7.2427    0.8694    0.0000 N   0  0  0  0  0  0  0  0  0  0  0  0
    8.6717    0.8694    0.0000 N   0  0  0  0  0  0  0  0  0  0  0  0
    7.9571   -0.3681    0.0000 N   0  0  0  0  0  0  0  0  0  0  0  0
    8.6717   -1.6057    0.0000 N   0  0  0  0  0  0  0  0  0  0  0  0
    2.9558    0.8694    0.0000 C   0  0  0  0  0  0  0  0  0  0  0  0
    2.8696    1.6899    0.0000 C   0  0  0  0  0  0  0  0  0  0  0  0
    2.0625    1.8614    0.0000 C   0  0  0  0  0  0  0  0  0  0  0  0
    1.6500    1.1469    0.0000 C   0  0  0  0  0  0  0  0  0  0  0  0
    3.6703    0.4569    0.0000 C   0  0  0  0  0  0  0  0  0  0  0  0
    5.0993    0.4569    0.0000 C   0  0  0  0  0  0  0  0  0  0  0  0
    5.8137    0.8694    0.0000 C   0  0  0  0  0  0  0  0  0  0  0  0
    6.5282    0.4569    0.0000 C   0  0  0  0  0  0  0  0  0  0  0  0
    7.9571    0.4569    0.0000 C   0  0  0  0  0  0  0  0  0  0  0  0
    7.2427    1.6944    0.0000 C   0  0  0  0  0  0  0  0  0  0  0  0
    9.3861   -0.3681    0.0000 C   0  0  0  0  0  0  0  0  0  0  0  0
    9.3861    0.4569    0.0000 C   0  0  0  0  0  0  0  0  0  0  0  0
    8.6717   -0.7806    0.0000 C   0  0  0  0  0  0  0  0  0  0  0  0
   10.1236   -0.8093    0.0000 C   0  0  0  0  0  0  0  0  0  0  0  0
   10.1236    0.8979    0.0000 C   0  0  0  0  0  0  0  0  0  0  0  0
   10.8712   -0.3853    0.0000 C   0  0  0  0  0  0  0  0  0  0  0  0
   10.8712    0.4741    0.0000 C   0  0  0  0  0  0  0  0  0  0  0  0
   11.5809   -1.6256    0.0000 C   0  0  0  0  0  0  0  0  0  0  0  0
   11.5809    1.7143    0.0000 C   0  0  0  0  0  0  0  0  0  0  0  0
    0.0000    0.0000    0.0000 H   0  0  0  0  0  0  0  0  0  0  0  0
    0.0000    0.0000    0.0000 H   0  0  0  0  0  0  0  0  0  0  0  0
    0.0000    0.0000    0.0000 H   0  0  0  0  0  0  0  0  0  0  0  0
    0.0000    0.0000    0.0000 H   0  0  0  0  0  0  0  0  0  0  0  0
    0.0000    0.0000    0.0000 H   0  0  0  0  0  0  0  0  0  0  0  0
    0.0000    0.0000    0.0000 H   0  0  0  0  0  0  0  0  0  0  0  0
    0.0000    0.0000    0.0000 H   0  0  0  0  0  0  0  0  0  0  0  0
    0.0000    0.0000    0.0000 H   0  0  0  0  0  0  0  0  0  0  0  0
    0.0000    0.0000    0.0000 H   0  0  0  0  0  0  0  0  0  0  0  0
    0.0000    0.0000    0.0000 H   0  0  0  0  0  0  0  0  0  0  0  0
    0.0000    0.0000    0.0000 H   0  0  0  0  0  0  0  0  0  0  0  0
    0.0000    0.0000    0.0000 H   0  0  0  0  0  0  0  0  0  0  0  0
    0.0000    0.0000    0.0000 H   0  0  0  0  0  0  0  0  0  0  0  0
    0.0000    0.0000    0.0000 H   0  0  0  0  0  0  0  0  0  0  0  0
    0.0000    0.0000    0.0000 H   0  0  0  0  0  0  0  0  0  0  0  0
    0.0000    0.0000    0.0000 H   0  0  0  0  0  0  0  0  0  0  0  0
    0.0000    0.0000    0.0000 H   0  0  0  0  0  0  0  0  0  0  0  0
    0.0000    0.0000    0.0000 H   0  0  0  0  0  0  0  0  0  0  0  0
    0.0000    0.0000    0.0000 H   0  0  0  0  0  0  0  0  0  0  0  0
    0.0000    0.0000    0.0000 H   0  0  0  0  0  0  0  0  0  0  0  0
    0.0000    0.0000    0.0000 H   0  0  0  0  0  0  0  0  0  0  0  0
    0.0000    0.0000    0.0000 H   0  0  0  0  0  0  0  0  0  0  0  0
    0.0000    0.0000    0.0000 H   0  0  0  0  0  0  0  0  0  0  0  0
    0.0000    0.0000    0.0000 H   0  0  0  0  0  0  0  0  0  0  0  0
    0.0000    0.0000    0.0000 H   0  0  0  0  0  0  0  0  0  0  0  0
    0.0000    0.0000    0.0000 H   0  0  0  0  0  0  0  0  0  0  0  0
    0.0000    0.0000    0.0000 H   0  0  0  0  0  0  0  0  0  0  0  0
  1 10  1  0
  1 13  1  0
  2 14  2  0
  3 25  1  0
  3 27  1  0
  4 26  1  0
  4 28  1  0
  5 14  1  0
  5 15  1  0
  6 17  1  0
  6 18  1  0
  6 19  1  0
  7 18  2  0
  7 21  1  0
  8 18  1  0
  8 22  2  0
  9 22  1  0
 10 11  1  0
 10 14  1  0
 11 12  1  0
 12 13  1  0
 15 16  1  0
 16 17  1  0
 20 21  2  0
 20 22  1  0
 20 23  1  0
 21 24  1  0
 23 25  2  0
 24 26  2  0
 25 26  1  0
  5 29  1  0
  9 30  1  0
  9 31  1  0
 10 32  1  0
 11 33  1  0
 11 34  1  0
 12 35  1  0
 12 36  1  0
 13 37  1  0
 13 38  1  0
 15 39  1  0
 15 40  1  0
 16 41  1  0
 16 42  1  0
 17 43  1  0
 17 44  1  0
 19 45  1  0
 19 46  1  0
 19 47  1  0
 23 48  1  0
 24 49  1  0
 27 50  1  0
 27 51  1  0
 27 52  1  0
 28 53  1  0
 28 54  1  0
 28 55  1  0
M  END
>  <ALOGPS_LOGP>  (1) 
2.02

>  <ALOGPS_LOGS>  (1) 
-3.14

>  <ALOGPS_SOLUBILITY>  (1) 
2.82e-01 g/l

>  <DATABASE_ID>  (1) 
DB00346

>  <DATABASE_NAME>  (1) 
drugbank

>  <DRUGBANK_ID>  (1) 
DB00346

>  <DRUG_GROUPS>  (1) 
approved; investigational

>  <EXACT_MASS>  (1) 
389.206304377

>  <FORMULA>  (1) 
C19H27N5O4

>  <GENERIC_NAME>  (1) 
Alfuzosin

>  <INCHI_IDENTIFIER>  (1) 
InChI=1S/C19H27N5O4/c1-24(8-5-7-21-18(25)14-6-4-9-28-14)19-22-13-11-16(27-3)15(26-2)10-12(13)17(20)23-19/h10-11,14H,4-9H2,1-3H3,(H,21,25)(H2,20,22,23)

>  <INCHI_KEY>  (1) 
WNMJYKCGWZFFKR-UHFFFAOYSA-N

>  <INTERNATIONAL_BRANDS>  (1) 
Alcinin; Alfasin XR; Alfetim; Alfoo; Alfu; Alfuran; Alfusozina; Flotral; Fual; Profuzo; Rantral; Uriten; Xantral; Xelflo; Zatral

>  <JCHEM_ACCEPTOR_COUNT>  (1) 
8

>  <JCHEM_AVERAGE_POLARIZABILITY>  (1) 
42.708839226430484

>  <JCHEM_BIOAVAILABILITY>  (1) 
1

>  <JCHEM_DONOR_COUNT>  (1) 
2

>  <JCHEM_FORMAL_CHARGE>  (1) 
0

>  <JCHEM_GHOSE_FILTER>  (1) 
1

>  <JCHEM_IUPAC>  (1) 
N-{3-[(4-amino-6,7-dimethoxyquinazolin-2-yl)(methyl)amino]propyl}oxolane-2-carboxamide

>  <JCHEM_LOGP>  (1) 
1.1875362089999997

>  <JCHEM_MDDR_LIKE_RULE>  (1) 
1

>  <JCHEM_NUMBER_OF_RINGS>  (1) 
3

>  <JCHEM_PHYSIOLOGICAL_CHARGE>  (1) 
1

>  <JCHEM_PKA_STRONGEST_ACIDIC>  (1) 
14.63969532465731

>  <JCHEM_PKA_STRONGEST_BASIC>  (1) 
7.303379443951849

>  <JCHEM_POLAR_SURFACE_AREA>  (1) 
111.83000000000001

>  <JCHEM_REFRACTIVITY>  (1) 
107.11410000000001

>  <JCHEM_ROTATABLE_BOND_COUNT>  (1) 
8

>  <JCHEM_RULE_OF_FIVE>  (1) 
1

>  <JCHEM_TRADITIONAL_IUPAC>  (1) 
alfuzosin

>  <JCHEM_VEBER_RULE>  (1) 
0

>  <MOLECULAR_WEIGHT>  (1) 
389.4488

>  <PRODUCTS>  (1) 
Alfuzosin; Alfuzosin Hydrochloride; Alfuzosin Hydrochloride ER; Alfuzosin Hydrochloride extended release; Alfuzosin hydrochloride; Apo-alfuzosin; Auro-alfuzosin; Sandoz Alfuzosin; Teva-alfuzosin Pr; Uroxatral; Xatral

>  <SALTS>  (1) 
Alfuzosin Hydrochloride

>  <SECONDARY_ACCESSION_NUMBERS>  (1) 
APRD00490

>  <SMILES>  (1) 
COC1=C(OC)C=C2C(N)=NC(=NC2=C1)N(C)CCCNC(=O)C1CCCO1

>  <SYNONYMS>  (1) 
(Â±)-N-[3-[(4-amino-6,7-dimethoxy-2-quinazolinyl)methylamino]propyl]tetrahydro-2-furamide ; Alfuzosin; Alfuzosina; Alfuzosine; Alfuzosinum; N-[3-[(4-amino-6,7-dimethoxy-quinazolin-2-yl)- methyl-amino]propyl] tetrahydrofuran- 2-carboxamide

$$$$
