176
     RDKit          2D

 43 43  0  0  0  0  0  0  0  0999 V2000
    3.4115    3.0938    0.0000 F   0  0  0  0  0  0  0  0  0  0  0  0
    5.0615    3.0938    0.0000 F   0  0  0  0  0  0  0  0  0  0  0  0
    4.2365    3.9188    0.0000 F   0  0  0  0  0  0  0  0  0  0  0  0
    6.3799   -3.0938    0.0000 O   0  0  0  0  0  0  0  0  0  0  0  0
    3.5220   -1.4438    0.0000 O   0  0  0  0  0  0  0  0  0  0  0  0
    3.5220   -0.6188    0.0000 N   0  0  0  0  0  0  0  0  0  0  0  0
    2.0930   -3.0938    0.0000 N   0  0  0  0  0  0  0  0  0  0  0  0
    4.9509   -1.4438    0.0000 C   0  0  0  0  0  0  0  0  0  0  0  0
    4.9509   -0.6188    0.0000 C   0  0  0  0  0  0  0  0  0  0  0  0
    5.6655   -1.8563    0.0000 C   0  0  0  0  0  0  0  0  0  0  0  0
    4.2365   -0.2063    0.0000 C   0  0  0  0  0  0  0  0  0  0  0  0
    4.2365    0.6188    0.0000 C   0  0  0  0  0  0  0  0  0  0  0  0
    5.6655   -2.6813    0.0000 C   0  0  0  0  0  0  0  0  0  0  0  0
    3.5220    1.0313    0.0000 C   0  0  0  0  0  0  0  0  0  0  0  0
    4.9509    1.0313    0.0000 C   0  0  0  0  0  0  0  0  0  0  0  0
    4.2365    2.2688    0.0000 C   0  0  0  0  0  0  0  0  0  0  0  0
    3.5220    1.8563    0.0000 C   0  0  0  0  0  0  0  0  0  0  0  0
    4.9509    1.8563    0.0000 C   0  0  0  0  0  0  0  0  0  0  0  0
    4.2365    3.0938    0.0000 C   0  0  0  0  0  0  0  0  0  0  0  0
    2.8075   -1.8563    0.0000 C   0  0  0  0  0  0  0  0  0  0  0  0
    6.3799   -3.9188    0.0000 C   0  0  0  0  0  0  0  0  0  0  0  0
    2.8075   -2.6813    0.0000 C   0  0  0  0  0  0  0  0  0  0  0  0
    0.0000    0.0000    0.0000 H   0  0  0  0  0  0  0  0  0  0  0  0
    0.0000    0.0000    0.0000 H   0  0  0  0  0  0  0  0  0  0  0  0
    0.0000    0.0000    0.0000 H   0  0  0  0  0  0  0  0  0  0  0  0
    0.0000    0.0000    0.0000 H   0  0  0  0  0  0  0  0  0  0  0  0
    0.0000    0.0000    0.0000 H   0  0  0  0  0  0  0  0  0  0  0  0
    0.0000    0.0000    0.0000 H   0  0  0  0  0  0  0  0  0  0  0  0
    0.0000    0.0000    0.0000 H   0  0  0  0  0  0  0  0  0  0  0  0
    0.0000    0.0000    0.0000 H   0  0  0  0  0  0  0  0  0  0  0  0
    0.0000    0.0000    0.0000 H   0  0  0  0  0  0  0  0  0  0  0  0
    0.0000    0.0000    0.0000 H   0  0  0  0  0  0  0  0  0  0  0  0
    0.0000    0.0000    0.0000 H   0  0  0  0  0  0  0  0  0  0  0  0
    0.0000    0.0000    0.0000 H   0  0  0  0  0  0  0  0  0  0  0  0
    0.0000    0.0000    0.0000 H   0  0  0  0  0  0  0  0  0  0  0  0
    0.0000    0.0000    0.0000 H   0  0  0  0  0  0  0  0  0  0  0  0
    0.0000    0.0000    0.0000 H   0  0  0  0  0  0  0  0  0  0  0  0
    0.0000    0.0000    0.0000 H   0  0  0  0  0  0  0  0  0  0  0  0
    0.0000    0.0000    0.0000 H   0  0  0  0  0  0  0  0  0  0  0  0
    0.0000    0.0000    0.0000 H   0  0  0  0  0  0  0  0  0  0  0  0
    0.0000    0.0000    0.0000 H   0  0  0  0  0  0  0  0  0  0  0  0
    0.0000    0.0000    0.0000 H   0  0  0  0  0  0  0  0  0  0  0  0
    0.0000    0.0000    0.0000 H   0  0  0  0  0  0  0  0  0  0  0  0
  1 19  1  0
  2 19  1  0
  3 19  1  0
  4 13  1  0
  4 21  1  0
  5  6  1  0
  5 20  1  0
  6 11  2  3
  7 22  1  0
  8  9  1  0
  8 10  1  0
  9 11  1  0
 10 13  1  0
 11 12  1  0
 12 14  2  0
 12 15  1  0
 14 17  1  0
 15 18  2  0
 16 17  2  0
 16 18  1  0
 16 19  1  0
 20 22  1  0
  7 23  1  0
  7 24  1  0
  8 25  1  0
  8 26  1  0
  9 27  1  0
  9 28  1  0
 10 29  1  0
 10 30  1  0
 13 31  1  0
 13 32  1  0
 14 33  1  0
 15 34  1  0
 17 35  1  0
 18 36  1  0
 20 37  1  0
 20 38  1  0
 21 39  1  0
 21 40  1  0
 21 41  1  0
 22 42  1  0
 22 43  1  0
M  END
>  <ALOGPS_LOGP>  (1) 
2.89

>  <ALOGPS_LOGS>  (1) 
-4.64

>  <ALOGPS_SOLUBILITY>  (1) 
7.34e-03 g/l

>  <DATABASE_ID>  (1) 
DB00176

>  <DATABASE_NAME>  (1) 
drugbank

>  <DRUGBANK_ID>  (1) 
DB00176

>  <DRUG_GROUPS>  (1) 
approved; investigational

>  <EXACT_MASS>  (1) 
318.155512541

>  <FORMULA>  (1) 
C15H21F3N2O2

>  <GENERIC_NAME>  (1) 
Fluvoxamine

>  <INCHI_IDENTIFIER>  (1) 
InChI=1S/C15H21F3N2O2/c1-21-10-3-2-4-14(20-22-11-9-19)12-5-7-13(8-6-12)15(16,17)18/h5-8H,2-4,9-11,19H2,1H3

>  <INCHI_KEY>  (1) 
CJOFXWAVKWHTFT-UHFFFAOYSA-N

>  <INTERNATIONAL_BRANDS>  (1) 
Dumirox; Faverin; Fevarin; Floxyfral; Maveral

>  <JCHEM_ACCEPTOR_COUNT>  (1) 
4

>  <JCHEM_AVERAGE_POLARIZABILITY>  (1) 
32.44223060664697

>  <JCHEM_BIOAVAILABILITY>  (1) 
1

>  <JCHEM_DONOR_COUNT>  (1) 
1

>  <JCHEM_FORMAL_CHARGE>  (1) 
0

>  <JCHEM_GHOSE_FILTER>  (1) 
1

>  <JCHEM_IUPAC>  (1) 
(2-aminoethoxy)({5-methoxy-1-[4-(trifluoromethyl)phenyl]pentylidene})amine

>  <JCHEM_LOGP>  (1) 
2.7953195803333326

>  <JCHEM_MDDR_LIKE_RULE>  (1) 
0

>  <JCHEM_NUMBER_OF_RINGS>  (1) 
1

>  <JCHEM_PHYSIOLOGICAL_CHARGE>  (1) 
1

>  <JCHEM_PKA_STRONGEST_BASIC>  (1) 
9.163029545122631

>  <JCHEM_POLAR_SURFACE_AREA>  (1) 
56.84

>  <JCHEM_REFRACTIVITY>  (1) 
79.1971

>  <JCHEM_ROTATABLE_BOND_COUNT>  (1) 
10

>  <JCHEM_RULE_OF_FIVE>  (1) 
1

>  <JCHEM_TRADITIONAL_IUPAC>  (1) 
luvox

>  <JCHEM_VEBER_RULE>  (1) 
0

>  <MOLECULAR_WEIGHT>  (1) 
318.3346

>  <PRODUCTS>  (1) 
Act Fluvoxamine; Apo-fluvoxamine Tablets; Ava-fluvoxamine; Bci Fluvoxamine Tablets; Dom-fluvoxamine; FLuvoxamine Maleate; Fluvoxamine Maleate; Fluvoxamine Maleate Extended-Release; Fluvoxamine Tablets; Fluvoxamine-100; Fluvoxamine-50; Gen-fluvoxamine 100mg; Gen-fluvoxamine 50mg; Luvox; Luvox CR; Novo-fluvoxamine; Nu-fluvoxamine 100 Mg Tab; Nu-fluvoxamine 50 Mg Tab; PHL-fluvoxamine; PMS-fluvoxamine; Ratio-fluvoxamine; Riva-fluvox; Riva-fluvox 100mg Tablets; Riva-fluvox 50mg Tablets; Sandoz Fluvoxamine

>  <SALTS>  (1) 
Fluvoxamine maleate

>  <SECONDARY_ACCESSION_NUMBERS>  (1) 
APRD00425

>  <SMILES>  (1) 
COCCCCC(=NOCCN)C1=CC=C(C=C1)C(F)(F)F

>  <SYNONYMS>  (1) 
Fluvoxamina; Fluvoxaminum

$$$$
