
     RDKit          2D

 34 35  0  0  1  0  0  0  0  0999 V2000
    9.7429   -8.9570    0.0000 C   0  0  0  0  0  0  0  0  0  0  0  0
    9.0755   -9.4420    0.0000 N   0  0  0  0  0  0  0  0  0  0  0  0
    8.6629   -8.1724    0.0000 N   0  0  0  0  0  0  0  0  0  0  0  0
   10.5275   -9.2120    0.0000 C   0  0  0  0  0  0  0  0  0  0  0  0
    8.4080   -8.9570    0.0000 C   0  0  0  0  0  0  0  0  0  0  0  0
    9.0755  -10.2670    0.0000 C   0  0  0  0  0  0  0  0  0  0  0  0
    9.4880   -8.1724    0.0000 C   0  0  0  0  0  0  0  0  0  0  0  0
   10.6990  -10.0189    0.0000 O   0  0  0  0  0  0  0  0  0  0  0  0
    8.3610  -10.6795    0.0000 C   0  0  0  0  0  0  0  0  0  0  0  0
   11.1406   -8.6599    0.0000 O   0  0  0  0  0  0  0  0  0  0  0  0
    9.7899  -10.6795    0.0000 C   0  0  0  0  0  0  0  0  0  0  0  0
    8.3610  -11.5045    0.0000 C   0  0  0  0  0  0  0  0  0  0  0  0
    7.6465  -10.2670    0.0000 C   0  0  0  0  0  0  0  0  0  0  0  0
   11.9253   -8.9149    0.0000 C   0  0  0  0  0  0  0  0  0  0  0  0
   12.5384   -8.3628    0.0000 C   0  0  0  0  0  0  0  0  0  0  0  0
    6.9320  -10.6795    0.0000 C   0  0  0  0  0  0  0  0  0  0  0  0
    7.6465  -11.9170    0.0000 C   0  0  0  0  0  0  0  0  0  0  0  0
    6.9320  -11.5045    0.0000 C   0  0  0  0  0  0  0  0  0  0  0  0
    0.0000    0.0000    0.0000 H   0  0  0  0  0  0  0  0  0  0  0  0
    0.0000    0.0000    0.0000 H   0  0  0  0  0  0  0  0  0  0  0  0
    0.0000    0.0000    0.0000 H   0  0  0  0  0  0  0  0  0  0  0  0
    0.0000    0.0000    0.0000 H   0  0  0  0  0  0  0  0  0  0  0  0
    0.0000    0.0000    0.0000 H   0  0  0  0  0  0  0  0  0  0  0  0
    0.0000    0.0000    0.0000 H   0  0  0  0  0  0  0  0  0  0  0  0
    0.0000    0.0000    0.0000 H   0  0  0  0  0  0  0  0  0  0  0  0
    0.0000    0.0000    0.0000 H   0  0  0  0  0  0  0  0  0  0  0  0
    0.0000    0.0000    0.0000 H   0  0  0  0  0  0  0  0  0  0  0  0
    0.0000    0.0000    0.0000 H   0  0  0  0  0  0  0  0  0  0  0  0
    0.0000    0.0000    0.0000 H   0  0  0  0  0  0  0  0  0  0  0  0
    0.0000    0.0000    0.0000 H   0  0  0  0  0  0  0  0  0  0  0  0
    0.0000    0.0000    0.0000 H   0  0  0  0  0  0  0  0  0  0  0  0
    0.0000    0.0000    0.0000 H   0  0  0  0  0  0  0  0  0  0  0  0
    0.0000    0.0000    0.0000 H   0  0  0  0  0  0  0  0  0  0  0  0
    0.0000    0.0000    0.0000 H   0  0  0  0  0  0  0  0  0  0  0  0
  2  1  1  0
  4  1  1  0
  7  1  2  0
  5  2  1  0
  6  2  1  6
  7  3  1  0
  5  3  2  0
  8  4  2  0
 10  4  1  0
  9  6  1  0
  6 11  1  0
 12  9  2  0
 13  9  1  0
 14 10  1  0
 17 12  1  0
 16 13  2  0
 15 14  1  0
 18 16  1  0
 18 17  2  0
  5 19  1  0
  6 20  1  0
  7 21  1  0
 11 22  1  0
 11 23  1  0
 11 24  1  0
 12 25  1  0
 13 26  1  0
 14 27  1  0
 14 28  1  0
 15 29  1  0
 15 30  1  0
 15 31  1  0
 16 32  1  0
 17 33  1  0
 18 34  1  0
M  END
>  <ALOGPS_LOGP>  (1) 
2.66

>  <ALOGPS_LOGS>  (1) 
-2.71

>  <ALOGPS_SOLUBILITY>  (1) 
4.77e-01 g/l

>  <DATABASE_ID>  (1) 
DB00292

>  <DATABASE_NAME>  (1) 
drugbank

>  <DRUGBANK_ID>  (1) 
DB00292

>  <DRUG_GROUPS>  (1) 
approved

>  <EXACT_MASS>  (1) 
244.121177766

>  <FORMULA>  (1) 
C14H16N2O2

>  <GENERIC_NAME>  (1) 
Etomidate

>  <INCHI_IDENTIFIER>  (1) 
InChI=1S/C14H16N2O2/c1-3-18-14(17)13-9-15-10-16(13)11(2)12-7-5-4-6-8-12/h4-11H,3H2,1-2H3/t11-/m1/s1

>  <INCHI_KEY>  (1) 
NPUKDXXFDDZOKR-LLVKDONJSA-N

>  <INTERNATIONAL_BRANDS>  (1) 
Hypnomidate

>  <JCHEM_ACCEPTOR_COUNT>  (1) 
2

>  <JCHEM_AVERAGE_POLARIZABILITY>  (1) 
26.429056935929424

>  <JCHEM_BIOAVAILABILITY>  (1) 
1

>  <JCHEM_DONOR_COUNT>  (1) 
0

>  <JCHEM_FORMAL_CHARGE>  (1) 
0

>  <JCHEM_GHOSE_FILTER>  (1) 
1

>  <JCHEM_IUPAC>  (1) 
ethyl 1-[(1R)-1-phenylethyl]-1H-imidazole-5-carboxylate

>  <JCHEM_LOGP>  (1) 
2.499786043

>  <JCHEM_MDDR_LIKE_RULE>  (1) 
0

>  <JCHEM_NUMBER_OF_RINGS>  (1) 
2

>  <JCHEM_PHYSIOLOGICAL_CHARGE>  (1) 
0

>  <JCHEM_PKA_STRONGEST_BASIC>  (1) 
4.544332555742307

>  <JCHEM_POLAR_SURFACE_AREA>  (1) 
44.120000000000005

>  <JCHEM_REFRACTIVITY>  (1) 
69.59230000000002

>  <JCHEM_ROTATABLE_BOND_COUNT>  (1) 
5

>  <JCHEM_RULE_OF_FIVE>  (1) 
1

>  <JCHEM_TRADITIONAL_IUPAC>  (1) 
(+)-etomidate

>  <JCHEM_VEBER_RULE>  (1) 
0

>  <MOLECULAR_WEIGHT>  (1) 
244.289

>  <PRODUCTS>  (1) 
Amidate; Etomidate

>  <SECONDARY_ACCESSION_NUMBERS>  (1) 
APRD00965

>  <SMILES>  (1) 
CCOC(=O)C1=CN=CN1[C@H](C)C1=CC=CC=C1

>  <SYNONYMS>  (1) 
(+)-ethyl 1-(Î±-methylbenzyl)imidazole-5-carboxylate; (+)-etomidate; (R)-1-(1-phenylethyl)-1H-imidazole-5-carboxylic acid ethyl ester

$$$$
