214
     RDKit          2D

 44 45  0  0  0  0  0  0  0  0999 V2000
    5.9363   -0.4125    0.0000 S   0  0  0  0  0  0  0  0  0  0  0  0
    5.1114   -0.4125    0.0000 O   0  0  0  0  0  0  0  0  0  0  0  0
    6.7612   -0.4125    0.0000 O   0  0  0  0  0  0  0  0  0  0  0  0
    7.3650    0.4125    0.0000 O   0  0  0  0  0  0  0  0  0  0  0  0
    6.6507    1.6498    0.0000 N   0  0  0  0  0  0  0  0  0  0  0  0
    4.5075   -1.2374    0.0000 N   0  0  0  0  0  0  0  0  0  0  0  0
    5.9363    0.4125    0.0000 N   0  0  0  0  0  0  0  0  0  0  0  0
    6.6507   -2.4748    0.0000 N   0  0  0  0  0  0  0  0  0  0  0  0
    7.3650    2.0623    0.0000 C   0  0  0  0  0  0  0  0  0  0  0  0
    5.9363   -1.2374    0.0000 C   0  0  0  0  0  0  0  0  0  0  0  0
    5.2218   -1.6498    0.0000 C   0  0  0  0  0  0  0  0  0  0  0  0
    3.7930   -1.6498    0.0000 C   0  0  0  0  0  0  0  0  0  0  0  0
    7.3650    2.8873    0.0000 C   0  0  0  0  0  0  0  0  0  0  0  0
    8.0794    1.6498    0.0000 C   0  0  0  0  0  0  0  0  0  0  0  0
    6.6507    0.8249    0.0000 C   0  0  0  0  0  0  0  0  0  0  0  0
    6.6507   -1.6498    0.0000 C   0  0  0  0  0  0  0  0  0  0  0  0
    5.2218   -2.4748    0.0000 C   0  0  0  0  0  0  0  0  0  0  0  0
    3.0787   -1.2374    0.0000 C   0  0  0  0  0  0  0  0  0  0  0  0
    2.3642   -1.6498    0.0000 C   0  0  0  0  0  0  0  0  0  0  0  0
    3.7930   -2.4748    0.0000 C   0  0  0  0  0  0  0  0  0  0  0  0
    5.9363   -2.8873    0.0000 C   0  0  0  0  0  0  0  0  0  0  0  0
    2.3642   -2.4748    0.0000 C   0  0  0  0  0  0  0  0  0  0  0  0
    3.0787   -2.8873    0.0000 C   0  0  0  0  0  0  0  0  0  0  0  0
    1.6498   -1.2374    0.0000 C   0  0  0  0  0  0  0  0  0  0  0  0
    0.0000    0.0000    0.0000 H   0  0  0  0  0  0  0  0  0  0  0  0
    0.0000    0.0000    0.0000 H   0  0  0  0  0  0  0  0  0  0  0  0
    0.0000    0.0000    0.0000 H   0  0  0  0  0  0  0  0  0  0  0  0
    0.0000    0.0000    0.0000 H   0  0  0  0  0  0  0  0  0  0  0  0
    0.0000    0.0000    0.0000 H   0  0  0  0  0  0  0  0  0  0  0  0
    0.0000    0.0000    0.0000 H   0  0  0  0  0  0  0  0  0  0  0  0
    0.0000    0.0000    0.0000 H   0  0  0  0  0  0  0  0  0  0  0  0
    0.0000    0.0000    0.0000 H   0  0  0  0  0  0  0  0  0  0  0  0
    0.0000    0.0000    0.0000 H   0  0  0  0  0  0  0  0  0  0  0  0
    0.0000    0.0000    0.0000 H   0  0  0  0  0  0  0  0  0  0  0  0
    0.0000    0.0000    0.0000 H   0  0  0  0  0  0  0  0  0  0  0  0
    0.0000    0.0000    0.0000 H   0  0  0  0  0  0  0  0  0  0  0  0
    0.0000    0.0000    0.0000 H   0  0  0  0  0  0  0  0  0  0  0  0
    0.0000    0.0000    0.0000 H   0  0  0  0  0  0  0  0  0  0  0  0
    0.0000    0.0000    0.0000 H   0  0  0  0  0  0  0  0  0  0  0  0
    0.0000    0.0000    0.0000 H   0  0  0  0  0  0  0  0  0  0  0  0
    0.0000    0.0000    0.0000 H   0  0  0  0  0  0  0  0  0  0  0  0
    0.0000    0.0000    0.0000 H   0  0  0  0  0  0  0  0  0  0  0  0
    0.0000    0.0000    0.0000 H   0  0  0  0  0  0  0  0  0  0  0  0
    0.0000    0.0000    0.0000 H   0  0  0  0  0  0  0  0  0  0  0  0
  1  2  2  0
  1  3  2  0
  1  7  1  0
  1 10  1  0
  4 15  2  0
  5  9  1  0
  5 15  1  0
  6 11  1  0
  6 12  1  0
  7 15  1  0
  8 16  2  0
  8 21  1  0
  9 13  1  0
  9 14  1  0
 10 11  2  0
 10 16  1  0
 11 17  1  0
 12 18  2  0
 12 20  1  0
 17 21  2  0
 18 19  1  0
 19 22  2  0
 19 24  1  0
 20 23  2  0
 22 23  1  0
  5 25  1  0
  6 26  1  0
  7 27  1  0
  9 28  1  0
 13 29  1  0
 13 30  1  0
 13 31  1  0
 14 32  1  0
 14 33  1  0
 14 34  1  0
 16 35  1  0
 17 36  1  0
 18 37  1  0
 20 38  1  0
 21 39  1  0
 22 40  1  0
 23 41  1  0
 24 42  1  0
 24 43  1  0
 24 44  1  0
M  END
>  <ALOGPS_LOGP>  (1) 
1.76

>  <ALOGPS_LOGS>  (1) 
-3.77

>  <ALOGPS_SOLUBILITY>  (1) 
5.96e-02 g/l

>  <DATABASE_ID>  (1) 
DB00214

>  <DATABASE_NAME>  (1) 
drugbank

>  <DRUGBANK_ID>  (1) 
DB00214

>  <DRUG_GROUPS>  (1) 
approved

>  <EXACT_MASS>  (1) 
348.125611216

>  <FORMULA>  (1) 
C16H20N4O3S

>  <GENERIC_NAME>  (1) 
Torasemide

>  <INCHI_IDENTIFIER>  (1) 
InChI=1S/C16H20N4O3S/c1-11(2)18-16(21)20-24(22,23)15-10-17-8-7-14(15)19-13-6-4-5-12(3)9-13/h4-11H,1-3H3,(H,17,19)(H2,18,20,21)

>  <INCHI_KEY>  (1) 
NGBFQHCMQULJNZ-UHFFFAOYSA-N

>  <INTERNATIONAL_BRANDS>  (1) 
Diuver; Examide; Luprac

>  <JCHEM_ACCEPTOR_COUNT>  (1) 
5

>  <JCHEM_AVERAGE_POLARIZABILITY>  (1) 
36.1517443045435

>  <JCHEM_BIOAVAILABILITY>  (1) 
1

>  <JCHEM_DONOR_COUNT>  (1) 
3

>  <JCHEM_FORMAL_CHARGE>  (1) 
0

>  <JCHEM_GHOSE_FILTER>  (1) 
1

>  <JCHEM_IUPAC>  (1) 
1-({4-[(3-methylphenyl)amino]pyridin-3-yl}sulfonyl)-3-(propan-2-yl)urea

>  <JCHEM_LOGP>  (1) 
1.8639035948569933

>  <JCHEM_MDDR_LIKE_RULE>  (1) 
0

>  <JCHEM_NUMBER_OF_RINGS>  (1) 
2

>  <JCHEM_PHYSIOLOGICAL_CHARGE>  (1) 
-1

>  <JCHEM_PKA>  (1) 
16.738516496384207

>  <JCHEM_PKA_STRONGEST_ACIDIC>  (1) 
5.922537313388586

>  <JCHEM_PKA_STRONGEST_BASIC>  (1) 
4.19782418417848

>  <JCHEM_POLAR_SURFACE_AREA>  (1) 
100.19

>  <JCHEM_REFRACTIVITY>  (1) 
91.8931

>  <JCHEM_ROTATABLE_BOND_COUNT>  (1) 
4

>  <JCHEM_RULE_OF_FIVE>  (1) 
1

>  <JCHEM_TRADITIONAL_IUPAC>  (1) 
torsemide

>  <JCHEM_VEBER_RULE>  (1) 
0

>  <MOLECULAR_WEIGHT>  (1) 
348.42

>  <PRODUCTS>  (1) 
Demadex; Demadex Injection - 10mg/ml; Demadex Tablets - 100mg; Demadex Tablets - 10mg; Demadex Tablets - 20mg; Demadex Tablets - 5mg; Torsemide

>  <SECONDARY_ACCESSION_NUMBERS>  (1) 
APRD00295; APRD00217

>  <SMILES>  (1) 
CC(C)NC(=O)NS(=O)(=O)C1=C(NC2=CC=CC(C)=C2)C=CN=C1

>  <SYNONYMS>  (1) 
Torasemida; Torasemidum; Torsemide

$$$$
