819
     RDKit          2D

 19 19  0  0  0  0  0  0  0  0999 V2000
    5.9518   -0.2872    0.0000 S   0  0  0  0  0  0  0  0  0  0  0  0
    4.4998   -0.5172    0.0000 S   0  0  0  0  0  0  0  0  0  0  0  0
    5.6969   -1.0718    0.0000 O   0  0  0  0  0  0  0  0  0  0  0  0
    6.2068    0.4974    0.0000 O   0  0  0  0  0  0  0  0  0  0  0  0
    2.6062    1.0718    0.0000 O   0  0  0  0  0  0  0  0  0  0  0  0
    3.0477   -0.2872    0.0000 N   0  0  0  0  0  0  0  0  0  0  0  0
    4.9123    0.7524    0.0000 N   0  0  0  0  0  0  0  0  0  0  0  0
    6.7365   -0.5421    0.0000 N   0  0  0  0  0  0  0  0  0  0  0  0
    4.0873    0.7524    0.0000 N   0  0  0  0  0  0  0  0  0  0  0  0
    5.1672   -0.0323    0.0000 C   0  0  0  0  0  0  0  0  0  0  0  0
    3.8324   -0.0323    0.0000 C   0  0  0  0  0  0  0  0  0  0  0  0
    2.4347    0.2648    0.0000 C   0  0  0  0  0  0  0  0  0  0  0  0
    1.6500    0.0099    0.0000 C   0  0  0  0  0  0  0  0  0  0  0  0
    0.0000    0.0000    0.0000 H   0  0  0  0  0  0  0  0  0  0  0  0
    0.0000    0.0000    0.0000 H   0  0  0  0  0  0  0  0  0  0  0  0
    0.0000    0.0000    0.0000 H   0  0  0  0  0  0  0  0  0  0  0  0
    0.0000    0.0000    0.0000 H   0  0  0  0  0  0  0  0  0  0  0  0
    0.0000    0.0000    0.0000 H   0  0  0  0  0  0  0  0  0  0  0  0
    0.0000    0.0000    0.0000 H   0  0  0  0  0  0  0  0  0  0  0  0
  1  3  2  0
  1  4  2  0
  1  8  1  0
  1 10  1  0
  2 10  1  0
  2 11  1  0
  5 12  2  0
  6 11  1  0
  6 12  1  0
  7  9  1  0
  7 10  2  0
  9 11  2  0
 12 13  1  0
  6 14  1  0
  8 15  1  0
  8 16  1  0
 13 17  1  0
 13 18  1  0
 13 19  1  0
M  END
>  <ALOGPS_LOGP>  (1) 
-0.39

>  <ALOGPS_LOGS>  (1) 
-1.90

>  <ALOGPS_SOLUBILITY>  (1) 
2.79e+00 g/l

>  <DATABASE_ID>  (1) 
DB00819

>  <DATABASE_NAME>  (1) 
drugbank

>  <DRUGBANK_ID>  (1) 
DB00819

>  <DRUG_GROUPS>  (1) 
approved; vet_approved

>  <EXACT_MASS>  (1) 
221.988131458

>  <FORMULA>  (1) 
C4H6N4O3S2

>  <GENERIC_NAME>  (1) 
Acetazolamide

>  <INCHI_IDENTIFIER>  (1) 
InChI=1S/C4H6N4O3S2/c1-2(9)6-3-7-8-4(12-3)13(5,10)11/h1H3,(H2,5,10,11)(H,6,7,9)

>  <INCHI_KEY>  (1) 
BZKPWHYZMXOIDC-UHFFFAOYSA-N

>  <INTERNATIONAL_BRANDS>  (1) 
Acemit; Acemox; Acetak; Acetamide; Acetazolamax; Azm; Azol; Azomid; Carbinib; Défiltran; Defiltran; Diabo; Diacarb; Diamox; Diamox Depot; Diazomid; Diluran; Diuramid; Edemox; Glaumox; Glaupax; Glupax; Huma-Zolamide; Iopar-SR; Medene; Oculten; Ödemin; Uramox; Zolmide

>  <JCHEM_ACCEPTOR_COUNT>  (1) 
5

>  <JCHEM_AVERAGE_POLARIZABILITY>  (1) 
19.162421614643097

>  <JCHEM_BIOAVAILABILITY>  (1) 
1

>  <JCHEM_DONOR_COUNT>  (1) 
2

>  <JCHEM_FORMAL_CHARGE>  (1) 
0

>  <JCHEM_GHOSE_FILTER>  (1) 
0

>  <JCHEM_IUPAC>  (1) 
N-(5-sulfamoyl-1,3,4-thiadiazol-2-yl)acetamide

>  <JCHEM_LOGP>  (1) 
-1.0394669539999999

>  <JCHEM_MDDR_LIKE_RULE>  (1) 
0

>  <JCHEM_NUMBER_OF_RINGS>  (1) 
1

>  <JCHEM_PHYSIOLOGICAL_CHARGE>  (1) 
-1

>  <JCHEM_PKA>  (1) 
10.353837823868071

>  <JCHEM_PKA_STRONGEST_ACIDIC>  (1) 
6.927925375604121

>  <JCHEM_PKA_STRONGEST_BASIC>  (1) 
-3.321660908526528

>  <JCHEM_POLAR_SURFACE_AREA>  (1) 
115.03999999999999

>  <JCHEM_REFRACTIVITY>  (1) 
47.3567

>  <JCHEM_ROTATABLE_BOND_COUNT>  (1) 
2

>  <JCHEM_RULE_OF_FIVE>  (1) 
1

>  <JCHEM_TRADITIONAL_IUPAC>  (1) 
acetazolamide

>  <JCHEM_VEBER_RULE>  (1) 
0

>  <MOLECULAR_WEIGHT>  (1) 
222.245

>  <PRODUCTS>  (1) 
AcetaZOLAMIDE; Acetazolam; Acetazolamide; Acetazolamide for Injection, USP; Diamox IV 500mg; Diamox Pws 500mg/vial; Diamox Sequels; Diamox Src 500mg; Diamox Tab 250mg; Diamox Tablets 250mg; Novo-zolamide Tab 250mg

>  <SALTS>  (1) 
Acetazolamide sodium

>  <SECONDARY_ACCESSION_NUMBERS>  (1) 
APRD00119; EXPT00604

>  <SMILES>  (1) 
CC(=O)NC1=NN=C(S1)S(N)(=O)=O

>  <SYNONYMS>  (1) 
2-acetylamino-1,3,4-thiadiazole-5-sulfonamide; 5-acetamido-1,3,4-thiadiazole-2-sulfonamide; 5-acetylamino-1,3,4-thiadiazole-2-sulfonamide; Acetazolamid; Acetazolamida ; Acétazolamide; Acetazolamidum; N-[5-(aminosulfonyl)-1,3,4-thiadiazol-2-yl]acetamide; N-[5-(aminosulfonyl)-1,3,5-thiadiazol-2-yl]acetamide

$$$$
