
     RDKit          2D

124127  0  0  0  0  0  0  0  0999 V2000
   -3.2107   -0.6552    0.0000 C   0  0  0  0  0  0  0  0  0  0  0  0
   -3.2107    0.1698    0.0000 C   0  0  0  0  0  0  0  0  0  0  0  0
   -2.4971    0.5824    0.0000 C   0  0  0  0  0  0  0  0  0  0  0  0
   -2.4971    1.4075    0.0000 N   0  0  0  0  0  0  0  0  0  0  0  0
   -2.4971   -1.0580    0.0000 O   0  0  0  0  0  0  0  0  0  0  0  0
   -0.3518    1.8250    0.0000 O   0  0  0  0  0  0  0  0  0  0  0  0
   -1.0653    1.4124    0.0000 C   0  0  0  0  0  0  0  0  0  0  0  0
    0.3615    1.4124    0.0000 C   0  0  0  0  0  0  0  0  0  0  0  0
   -2.5020   -1.8880    0.0000 C   0  0  0  0  0  0  0  0  0  0  0  0
   -1.7836    1.8201    0.0000 C   0  0  0  0  0  0  0  0  0  0  0  0
    1.0750    1.8250    0.0000 C   0  0  0  0  0  0  0  0  0  0  0  0
    0.3615    0.5873    0.0000 C   0  0  0  0  0  0  0  0  0  0  0  0
   -3.9291   -1.0629    0.0000 C   0  0  0  0  0  0  0  0  0  0  0  0
    1.7934   -1.0629    0.0000 C   0  0  0  0  0  0  0  0  0  0  0  0
    1.0750    0.1747    0.0000 C   0  0  0  0  0  0  0  0  0  0  0  0
    1.0750   -0.6503    0.0000 C   0  0  0  0  0  0  0  0  0  0  0  0
    1.0750    2.6501    0.0000 C   0  0  0  0  0  0  0  0  0  0  0  0
   -3.2156   -2.3007    0.0000 C   0  0  0  0  0  0  0  0  0  0  0  0
    1.0799   -2.3007    0.0000 C   0  0  0  0  0  0  0  0  0  0  0  0
   -1.9583   -2.8442    0.0000 C   0  0  0  0  0  0  0  0  0  0  0  0
    1.0799   -3.1258    0.0000 C   0  0  0  0  0  0  0  0  0  0  0  0
   -3.9291   -1.8832    0.0000 C   0  0  0  0  0  0  0  0  0  0  0  0
    1.7934   -1.8880    0.0000 C   0  0  0  0  0  0  0  0  0  0  0  0
   -3.9242    0.5824    0.0000 O   0  0  0  0  0  0  0  0  0  0  0  0
   -1.7789    0.1698    0.0000 O   0  0  0  0  0  0  0  0  0  0  0  0
   -1.0653    0.5873    0.0000 O   0  0  0  0  0  0  0  0  0  0  0  0
    3.2108    3.0578    0.0000 C   0  0  0  0  0  0  0  0  0  0  0  0
    1.7885    3.0627    0.0000 C   0  0  0  0  0  0  0  0  0  0  0  0
   -1.1332   -2.8442    0.0000 C   0  0  0  0  0  0  0  0  0  0  0  0
   -3.9291   -0.2378    0.0000 O   0  0  0  0  0  0  0  0  0  0  0  0
    2.5020    2.6452    0.0000 C   0  0  0  0  0  0  0  0  0  0  0  0
    2.5069   -0.6503    0.0000 O   0  0  0  0  0  0  0  0  0  0  0  0
    3.2156    3.8829    0.0000 C   0  0  0  0  0  0  0  0  0  0  0  0
    0.2353   -3.5578    0.0000 C   0  0  0  0  0  0  0  0  0  0  0  0
   -0.5897   -3.5578    0.0000 C   0  0  0  0  0  0  0  0  0  0  0  0
    2.5020    4.2955    0.0000 C   0  0  0  0  0  0  0  0  0  0  0  0
   -3.2107    1.8201    0.0000 C   0  0  0  0  0  0  0  0  0  0  0  0
    1.7934    0.5873    0.0000 O   0  0  0  0  0  0  0  0  0  0  0  0
    1.7837    3.8829    0.0000 C   0  0  0  0  0  0  0  0  0  0  0  0
   -3.2204   -3.1258    0.0000 O   0  0  0  0  0  0  0  0  0  0  0  0
   -2.3759   -3.5529    0.0000 O   0  0  0  0  0  0  0  0  0  0  0  0
    3.9340    4.2906    0.0000 Cl  0  0  0  0  0  0  0  0  0  0  0  0
    3.9243    2.6404    0.0000 O   0  0  0  0  0  0  0  0  0  0  0  0
    1.7885    1.4124    0.0000 C   0  0  0  0  0  0  0  0  0  0  0  0
   -0.3518    0.1747    0.0000 C   0  0  0  0  0  0  0  0  0  0  0  0
   -1.7836    2.6452    0.0000 C   0  0  0  0  0  0  0  0  0  0  0  0
   -4.6426   -0.6456    0.0000 C   0  0  0  0  0  0  0  0  0  0  0  0
    1.7934   -3.5383    0.0000 C   0  0  0  0  0  0  0  0  0  0  0  0
    2.5069   -2.3007    0.0000 C   0  0  0  0  0  0  0  0  0  0  0  0
   -0.9585   -4.2955    0.0000 C   0  0  0  0  0  0  0  0  0  0  0  0
   -1.9681   -4.2713    0.0000 C   0  0  0  0  0  0  0  0  0  0  0  0
   -3.9340   -3.5334    0.0000 C   0  0  0  0  0  0  0  0  0  0  0  0
    4.6426    3.0530    0.0000 C   0  0  0  0  0  0  0  0  0  0  0  0
   -3.2107    2.6452    0.0000 C   0  0  0  0  0  0  0  0  0  0  0  0
    3.2204   -1.8880    0.0000 C   0  0  0  0  0  0  0  0  0  0  0  0
   -2.4971    3.0578    0.0000 C   0  0  0  0  0  0  0  0  0  0  0  0
    0.0000    0.0000    0.0000 H   0  0  0  0  0  0  0  0  0  0  0  0
    0.0000    0.0000    0.0000 H   0  0  0  0  0  0  0  0  0  0  0  0
    0.0000    0.0000    0.0000 H   0  0  0  0  0  0  0  0  0  0  0  0
    0.0000    0.0000    0.0000 H   0  0  0  0  0  0  0  0  0  0  0  0
    0.0000    0.0000    0.0000 H   0  0  0  0  0  0  0  0  0  0  0  0
    0.0000    0.0000    0.0000 H   0  0  0  0  0  0  0  0  0  0  0  0
    0.0000    0.0000    0.0000 H   0  0  0  0  0  0  0  0  0  0  0  0
    0.0000    0.0000    0.0000 H   0  0  0  0  0  0  0  0  0  0  0  0
    0.0000    0.0000    0.0000 H   0  0  0  0  0  0  0  0  0  0  0  0
    0.0000    0.0000    0.0000 H   0  0  0  0  0  0  0  0  0  0  0  0
    0.0000    0.0000    0.0000 H   0  0  0  0  0  0  0  0  0  0  0  0
    0.0000    0.0000    0.0000 H   0  0  0  0  0  0  0  0  0  0  0  0
    0.0000    0.0000    0.0000 H   0  0  0  0  0  0  0  0  0  0  0  0
    0.0000    0.0000    0.0000 H   0  0  0  0  0  0  0  0  0  0  0  0
    0.0000    0.0000    0.0000 H   0  0  0  0  0  0  0  0  0  0  0  0
    0.0000    0.0000    0.0000 H   0  0  0  0  0  0  0  0  0  0  0  0
    0.0000    0.0000    0.0000 H   0  0  0  0  0  0  0  0  0  0  0  0
    0.0000    0.0000    0.0000 H   0  0  0  0  0  0  0  0  0  0  0  0
    0.0000    0.0000    0.0000 H   0  0  0  0  0  0  0  0  0  0  0  0
    0.0000    0.0000    0.0000 H   0  0  0  0  0  0  0  0  0  0  0  0
    0.0000    0.0000    0.0000 H   0  0  0  0  0  0  0  0  0  0  0  0
    0.0000    0.0000    0.0000 H   0  0  0  0  0  0  0  0  0  0  0  0
    0.0000    0.0000    0.0000 H   0  0  0  0  0  0  0  0  0  0  0  0
    0.0000    0.0000    0.0000 H   0  0  0  0  0  0  0  0  0  0  0  0
    0.0000    0.0000    0.0000 H   0  0  0  0  0  0  0  0  0  0  0  0
    0.0000    0.0000    0.0000 H   0  0  0  0  0  0  0  0  0  0  0  0
    0.0000    0.0000    0.0000 H   0  0  0  0  0  0  0  0  0  0  0  0
    0.0000    0.0000    0.0000 H   0  0  0  0  0  0  0  0  0  0  0  0
    0.0000    0.0000    0.0000 H   0  0  0  0  0  0  0  0  0  0  0  0
    0.0000    0.0000    0.0000 H   0  0  0  0  0  0  0  0  0  0  0  0
    0.0000    0.0000    0.0000 H   0  0  0  0  0  0  0  0  0  0  0  0
    0.0000    0.0000    0.0000 H   0  0  0  0  0  0  0  0  0  0  0  0
    0.0000    0.0000    0.0000 H   0  0  0  0  0  0  0  0  0  0  0  0
    0.0000    0.0000    0.0000 H   0  0  0  0  0  0  0  0  0  0  0  0
    0.0000    0.0000    0.0000 H   0  0  0  0  0  0  0  0  0  0  0  0
    0.0000    0.0000    0.0000 H   0  0  0  0  0  0  0  0  0  0  0  0
    0.0000    0.0000    0.0000 H   0  0  0  0  0  0  0  0  0  0  0  0
    0.0000    0.0000    0.0000 H   0  0  0  0  0  0  0  0  0  0  0  0
    0.0000    0.0000    0.0000 H   0  0  0  0  0  0  0  0  0  0  0  0
    0.0000    0.0000    0.0000 H   0  0  0  0  0  0  0  0  0  0  0  0
    0.0000    0.0000    0.0000 H   0  0  0  0  0  0  0  0  0  0  0  0
    0.0000    0.0000    0.0000 H   0  0  0  0  0  0  0  0  0  0  0  0
    0.0000    0.0000    0.0000 H   0  0  0  0  0  0  0  0  0  0  0  0
    0.0000    0.0000    0.0000 H   0  0  0  0  0  0  0  0  0  0  0  0
    0.0000    0.0000    0.0000 H   0  0  0  0  0  0  0  0  0  0  0  0
    0.0000    0.0000    0.0000 H   0  0  0  0  0  0  0  0  0  0  0  0
    0.0000    0.0000    0.0000 H   0  0  0  0  0  0  0  0  0  0  0  0
    0.0000    0.0000    0.0000 H   0  0  0  0  0  0  0  0  0  0  0  0
    0.0000    0.0000    0.0000 H   0  0  0  0  0  0  0  0  0  0  0  0
    0.0000    0.0000    0.0000 H   0  0  0  0  0  0  0  0  0  0  0  0
    0.0000    0.0000    0.0000 H   0  0  0  0  0  0  0  0  0  0  0  0
    0.0000    0.0000    0.0000 H   0  0  0  0  0  0  0  0  0  0  0  0
    0.0000    0.0000    0.0000 H   0  0  0  0  0  0  0  0  0  0  0  0
    0.0000    0.0000    0.0000 H   0  0  0  0  0  0  0  0  0  0  0  0
    0.0000    0.0000    0.0000 H   0  0  0  0  0  0  0  0  0  0  0  0
    0.0000    0.0000    0.0000 H   0  0  0  0  0  0  0  0  0  0  0  0
    0.0000    0.0000    0.0000 H   0  0  0  0  0  0  0  0  0  0  0  0
    0.0000    0.0000    0.0000 H   0  0  0  0  0  0  0  0  0  0  0  0
    0.0000    0.0000    0.0000 H   0  0  0  0  0  0  0  0  0  0  0  0
    0.0000    0.0000    0.0000 H   0  0  0  0  0  0  0  0  0  0  0  0
    0.0000    0.0000    0.0000 H   0  0  0  0  0  0  0  0  0  0  0  0
    0.0000    0.0000    0.0000 H   0  0  0  0  0  0  0  0  0  0  0  0
    0.0000    0.0000    0.0000 H   0  0  0  0  0  0  0  0  0  0  0  0
    0.0000    0.0000    0.0000 H   0  0  0  0  0  0  0  0  0  0  0  0
    0.0000    0.0000    0.0000 H   0  0  0  0  0  0  0  0  0  0  0  0
    0.0000    0.0000    0.0000 H   0  0  0  0  0  0  0  0  0  0  0  0
    0.0000    0.0000    0.0000 H   0  0  0  0  0  0  0  0  0  0  0  0
    0.0000    0.0000    0.0000 H   0  0  0  0  0  0  0  0  0  0  0  0
  2  1  1  0
  3  2  1  0
  4  3  1  0
  5  1  1  0
  6  7  1  0
  7 10  1  0
  8  6  1  0
  9  5  1  0
 10  4  1  0
  8 11  1  1
 12  8  1  0
 13  1  1  0
 14 23  1  0
 15 12  1  0
 16 15  1  0
 17 11  2  0
 18 22  1  0
 19 21  2  0
 20  9  1  0
 21 34  1  0
 22 13  1  0
 23 19  1  0
 24  2  2  0
 25  3  2  0
 26  7  2  0
 27 31  1  0
 28 17  1  6
 29 20  1  0
  1 30  1  1
 31 28  1  0
 32 14  2  0
 33 36  1  0
 34 35  1  0
 35 29  1  0
 36 39  1  0
 37  4  1  0
 15 38  1  6
 39 28  1  0
 18 40  1  6
 20 41  1  1
 33 42  1  1
 27 43  1  6
 44 11  1  0
 12 45  1  1
 46 10  1  0
 13 47  1  6
 48 21  1  0
 23 49  1  1
 35 50  1  1
 51 41  1  0
 52 40  1  0
 53 43  1  0
 54 37  1  0
 55 49  1  0
 56 46  1  0
  9 18  1  0
 56 54  1  0
 14 16  1  0
 33 27  1  0
  8 57  1  0
  9 58  1  1
 10 59  1  6
 12 60  1  0
 13 61  1  0
 15 62  1  0
 16 63  1  0
 16 64  1  0
 17 65  1  0
 18 66  1  0
 19 67  1  0
 20 68  1  0
 22 69  1  0
 22 70  1  0
 23 71  1  0
 27 72  1  0
 28 73  1  0
 29 74  1  0
 29 75  1  0
 30 76  1  0
 31 77  1  0
 31 78  1  0
 33 79  1  0
 34 80  1  0
 34 81  1  0
 35 82  1  0
 36 83  1  0
 36 84  1  0
 37 85  1  0
 37 86  1  0
 38 87  1  0
 39 88  1  0
 39 89  1  0
 44 90  1  0
 44 91  1  0
 44 92  1  0
 45 93  1  0
 45 94  1  0
 45 95  1  0
 46 96  1  0
 46 97  1  0
 47 98  1  0
 47 99  1  0
 47100  1  0
 48101  1  0
 48102  1  0
 48103  1  0
 49104  1  0
 49105  1  0
 50106  1  0
 50107  1  0
 50108  1  0
 51109  1  0
 51110  1  0
 51111  1  0
 52112  1  0
 52113  1  0
 52114  1  0
 53115  1  0
 53116  1  0
 53117  1  0
 54118  1  0
 54119  1  0
 55120  1  0
 55121  1  0
 55122  1  0
 56123  1  0
 56124  1  0
M  END
>  <ALOGPS_LOGP>  (1) 
4.36

>  <ALOGPS_LOGS>  (1) 
-5.73

>  <ALOGPS_SOLUBILITY>  (1) 
1.52e-03 g/l

>  <DATABASE_ID>  (1) 
DB00337

>  <DATABASE_NAME>  (1) 
drugbank

>  <DRUGBANK_ID>  (1) 
DB00337

>  <DRUG_GROUPS>  (1) 
approved; investigational

>  <EXACT_MASS>  (1) 
809.4480897

>  <FORMULA>  (1) 
C43H68ClNO11

>  <GENERIC_NAME>  (1) 
Pimecrolimus

>  <INCHI_IDENTIFIER>  (1) 
InChI=1S/C43H68ClNO11/c1-10-30-18-24(2)17-25(3)19-36(53-8)39-37(54-9)21-27(5)43(51,56-39)40(48)41(49)45-16-12-11-13-32(45)42(50)55-38(28(6)33(46)23-34(30)47)26(4)20-29-14-15-31(44)35(22-29)52-7/h18,20,25,27-33,35-39,46,51H,10-17,19,21-23H2,1-9H3/b24-18+,26-20+/t25-,27+,28+,29-,30+,31-,32-,33-,35+,36-,37-,38+,39+,43+/m0/s1

>  <INCHI_KEY>  (1) 
KASDHRXLYQOAKZ-XDSKOBMDSA-N

>  <INTERNATIONAL_BRANDS>  (1) 
Aregen; Rizan

>  <JCHEM_ACCEPTOR_COUNT>  (1) 
10

>  <JCHEM_ATOM_COUNT>  (1) 
124

>  <JCHEM_AVERAGE_POLARIZABILITY>  (1) 
87.79328869090864

>  <JCHEM_BIOAVAILABILITY>  (1) 
0

>  <JCHEM_DONOR_COUNT>  (1) 
2

>  <JCHEM_FORMAL_CHARGE>  (1) 
0

>  <JCHEM_GHOSE_FILTER>  (1) 
0

>  <JCHEM_IUPAC>  (1) 
(1R,9S,12S,13R,14S,17R,18E,21S,23S,24R,25S,27R)-12-[(1E)-1-[(1R,3R,4S)-4-chloro-3-methoxycyclohexyl]prop-1-en-2-yl]-17-ethyl-1,14-dihydroxy-23,25-dimethoxy-13,19,21,27-tetramethyl-11,28-dioxa-4-azatricyclo[22.3.1.0⁴,⁹]octacos-18-ene-2,3,10,16-tetrone

>  <JCHEM_LOGP>  (1) 
6.808131370666668

>  <JCHEM_MDDR_LIKE_RULE>  (1) 
1

>  <JCHEM_NUMBER_OF_RINGS>  (1) 
4

>  <JCHEM_PHYSIOLOGICAL_CHARGE>  (1) 
0

>  <JCHEM_PKA>  (1) 
14.66327647637415

>  <JCHEM_PKA_STRONGEST_ACIDIC>  (1) 
9.955625146449202

>  <JCHEM_PKA_STRONGEST_BASIC>  (1) 
-2.9370881455248625

>  <JCHEM_POLAR_SURFACE_AREA>  (1) 
158.12999999999997

>  <JCHEM_REFRACTIVITY>  (1) 
214.02620000000002

>  <JCHEM_ROTATABLE_BOND_COUNT>  (1) 
6

>  <JCHEM_RULE_OF_FIVE>  (1) 
0

>  <JCHEM_TRADITIONAL_IUPAC>  (1) 
sdz-asm 981

>  <JCHEM_VEBER_RULE>  (1) 
0

>  <MOLECULAR_WEIGHT>  (1) 
810.46

>  <PRODUCTS>  (1) 
Elidel

>  <SECONDARY_ACCESSION_NUMBERS>  (1) 
APRD01182

>  <SMILES>  (1) 
[H][C@]1(CC[C@H](Cl)[C@@H](C1)OC)\C=C(/C)[C@@]1([H])OC(=O)[C@]2([H])CCCCN2C(=O)C(=O)[C@]2(O)O[C@@]([H])([C@H](C[C@H]2C)OC)[C@H](C[C@@H](C)C\C(C)=C\[C@@H](CC)C(=O)C[C@H](O)[C@H]1C)OC

>  <SYNONYMS>  (1) 
33-Epi-chloro-33-desoxyascomycin; Pimecrolimus; Pimecrolimusum

$$$$
