629
     RDKit          2D

 22 22  0  0  0  0  0  0  0  0999 V2000
    4.5079   -0.9529    0.0000 Cl  0  0  0  0  0  0  0  0  0  0  0  0
    1.6500   -0.9529    0.0000 Cl  0  0  0  0  0  0  0  0  0  0  0  0
    3.7934    0.2846    0.0000 N   0  0  0  0  0  0  0  0  0  0  0  0
    3.7934    1.1096    0.0000 N   0  0  0  0  0  0  0  0  0  0  0  0
    4.5079    2.3471    0.0000 N   0  0  0  0  0  0  0  0  0  0  0  0
    5.2223    1.1096    0.0000 N   0  0  0  0  0  0  0  0  0  0  0  0
    3.0790   -0.9529    0.0000 C   0  0  0  0  0  0  0  0  0  0  0  0
    3.7934   -1.3654    0.0000 C   0  0  0  0  0  0  0  0  0  0  0  0
    2.3645   -1.3654    0.0000 C   0  0  0  0  0  0  0  0  0  0  0  0
    3.7934   -2.1904    0.0000 C   0  0  0  0  0  0  0  0  0  0  0  0
    2.3645   -2.1904    0.0000 C   0  0  0  0  0  0  0  0  0  0  0  0
    3.0790   -2.6029    0.0000 C   0  0  0  0  0  0  0  0  0  0  0  0
    3.0790   -0.1279    0.0000 C   0  0  0  0  0  0  0  0  0  0  0  0
    4.5079    1.5221    0.0000 C   0  0  0  0  0  0  0  0  0  0  0  0
    0.0000    0.0000    0.0000 H   0  0  0  0  0  0  0  0  0  0  0  0
    0.0000    0.0000    0.0000 H   0  0  0  0  0  0  0  0  0  0  0  0
    0.0000    0.0000    0.0000 H   0  0  0  0  0  0  0  0  0  0  0  0
    0.0000    0.0000    0.0000 H   0  0  0  0  0  0  0  0  0  0  0  0
    0.0000    0.0000    0.0000 H   0  0  0  0  0  0  0  0  0  0  0  0
    0.0000    0.0000    0.0000 H   0  0  0  0  0  0  0  0  0  0  0  0
    0.0000    0.0000    0.0000 H   0  0  0  0  0  0  0  0  0  0  0  0
    0.0000    0.0000    0.0000 H   0  0  0  0  0  0  0  0  0  0  0  0
  1  8  1  0
  2  9  1  0
  3  4  1  0
  3 13  2  3
  4 14  2  3
  5 14  1  0
  6 14  1  0
  7  8  2  0
  7  9  1  0
  7 13  1  0
  8 10  1  0
  9 11  2  0
 10 12  2  0
 11 12  1  0
  5 15  1  0
  5 16  1  0
  6 17  1  0
  6 18  1  0
 10 19  1  0
 11 20  1  0
 12 21  1  0
 13 22  1  0
M  END
>  <ALOGPS_LOGP>  (1) 
2.25

>  <ALOGPS_LOGS>  (1) 
-3.41

>  <ALOGPS_SOLUBILITY>  (1) 
8.89e-02 g/l

>  <DATABASE_ID>  (1) 
DB00629

>  <DATABASE_NAME>  (1) 
drugbank

>  <DRUGBANK_ID>  (1) 
DB00629

>  <DRUG_GROUPS>  (1) 
approved; investigational

>  <EXACT_MASS>  (1) 
230.01260169

>  <FORMULA>  (1) 
C8H8Cl2N4

>  <GENERIC_NAME>  (1) 
Guanabenz

>  <INCHI_IDENTIFIER>  (1) 
InChI=1S/C8H8Cl2N4/c9-6-2-1-3-7(10)5(6)4-13-14-8(11)12/h1-4H,(H4,11,12,14)

>  <INCHI_KEY>  (1) 
WDZVGELJXXEGPV-UHFFFAOYSA-N

>  <INTERNATIONAL_BRANDS>  (1) 
Lisapres; Rexitene; Wytens; Wytensin

>  <JCHEM_ACCEPTOR_COUNT>  (1) 
4

>  <JCHEM_AVERAGE_POLARIZABILITY>  (1) 
21.575963429526524

>  <JCHEM_BIOAVAILABILITY>  (1) 
1

>  <JCHEM_DONOR_COUNT>  (1) 
2

>  <JCHEM_FORMAL_CHARGE>  (1) 
0

>  <JCHEM_GHOSE_FILTER>  (1) 
1

>  <JCHEM_IUPAC>  (1) 
2-{[(2,6-dichlorophenyl)methylidene]amino}guanidine

>  <JCHEM_LOGP>  (1) 
1.713098971

>  <JCHEM_MDDR_LIKE_RULE>  (1) 
0

>  <JCHEM_NUMBER_OF_RINGS>  (1) 
1

>  <JCHEM_PHYSIOLOGICAL_CHARGE>  (1) 
0

>  <JCHEM_PKA_STRONGEST_BASIC>  (1) 
6.817426366130537

>  <JCHEM_POLAR_SURFACE_AREA>  (1) 
76.75999999999999

>  <JCHEM_REFRACTIVITY>  (1) 
58.15260000000001

>  <JCHEM_ROTATABLE_BOND_COUNT>  (1) 
2

>  <JCHEM_RULE_OF_FIVE>  (1) 
1

>  <JCHEM_TRADITIONAL_IUPAC>  (1) 
guanabenz

>  <JCHEM_VEBER_RULE>  (1) 
0

>  <MOLECULAR_WEIGHT>  (1) 
231.082

>  <SALTS>  (1) 
Guanabenz Acetate

>  <SECONDARY_ACCESSION_NUMBERS>  (1) 
APRD00487

>  <SMILES>  (1) 
NC(N)=NN=CC1=C(Cl)C=CC=C1Cl

>  <SYNONYMS>  (1) 
Guanabenz; Guanabenzo; Guanabenzum

$$$$
