
     RDKit          2D

 52 55  0  0  1  0  0  0  0  0999 V2000
    4.1207   -4.5812    0.0000 N   0  0  0  0  0  0  0  0  0  0  0  0
    4.8379   -3.3448    0.0000 C   0  0  0  0  0  0  0  0  0  0  0  0
    4.8379   -4.1732    0.0000 C   0  0  0  0  0  0  0  0  0  0  0  0
    4.1207   -2.9369    0.0000 C   0  0  0  0  0  0  0  0  0  0  0  0
    3.4119   -4.1732    0.0000 C   0  0  0  0  0  0  0  0  0  0  0  0
    3.7501   -3.8760    0.0000 C   0  0  0  0  0  0  0  0  0  0  0  0
    3.4119   -3.3448    0.0000 C   0  0  0  0  0  0  0  0  0  0  0  0
    4.4504   -3.6787    0.0000 C   0  0  0  0  0  0  0  0  0  0  0  0
    4.1207   -5.3354    0.0000 C   0  0  0  0  0  0  0  0  0  0  0  0
    5.5510   -2.9301    0.0000 O   0  0  0  0  0  0  0  0  0  0  0  0
    6.2668   -3.3404    0.0000 C   0  0  0  0  0  0  0  0  0  0  0  0
    6.9799   -2.9256    0.0000 C   0  0  0  0  0  0  0  0  0  0  0  0
    6.2694   -4.1653    0.0000 O   0  0  0  0  0  0  0  0  0  0  0  0
    7.6957   -3.3358    0.0000 O   0  0  0  0  0  0  0  0  0  0  0  0
    6.3966   -2.3422    0.0000 C   0  0  0  0  0  0  0  0  0  0  0  0
    7.5633   -2.3422    0.0000 C   0  0  0  0  0  0  0  0  0  0  0  0
    5.5997   -2.5558    0.0000 C   0  0  0  0  0  0  0  0  0  0  0  0
    5.0163   -1.9724    0.0000 C   0  0  0  0  0  0  0  0  0  0  0  0
    5.2298   -1.1755    0.0000 C   0  0  0  0  0  0  0  0  0  0  0  0
    6.6101   -1.5453    0.0000 C   0  0  0  0  0  0  0  0  0  0  0  0
    6.0267   -0.9620    0.0000 C   0  0  0  0  0  0  0  0  0  0  0  0
    8.3602   -2.5558    0.0000 C   0  0  0  0  0  0  0  0  0  0  0  0
    8.9436   -1.9724    0.0000 C   0  0  0  0  0  0  0  0  0  0  0  0
    7.3498   -1.5453    0.0000 C   0  0  0  0  0  0  0  0  0  0  0  0
    8.7300   -1.1755    0.0000 C   0  0  0  0  0  0  0  0  0  0  0  0
    7.9332   -0.9620    0.0000 C   0  0  0  0  0  0  0  0  0  0  0  0
    0.0000    0.0000    0.0000 H   0  0  0  0  0  0  0  0  0  0  0  0
    0.0000    0.0000    0.0000 H   0  0  0  0  0  0  0  0  0  0  0  0
    0.0000    0.0000    0.0000 H   0  0  0  0  0  0  0  0  0  0  0  0
    0.0000    0.0000    0.0000 H   0  0  0  0  0  0  0  0  0  0  0  0
    0.0000    0.0000    0.0000 H   0  0  0  0  0  0  0  0  0  0  0  0
    0.0000    0.0000    0.0000 H   0  0  0  0  0  0  0  0  0  0  0  0
    0.0000    0.0000    0.0000 H   0  0  0  0  0  0  0  0  0  0  0  0
    0.0000    0.0000    0.0000 H   0  0  0  0  0  0  0  0  0  0  0  0
    0.0000    0.0000    0.0000 H   0  0  0  0  0  0  0  0  0  0  0  0
    0.0000    0.0000    0.0000 H   0  0  0  0  0  0  0  0  0  0  0  0
    0.0000    0.0000    0.0000 H   0  0  0  0  0  0  0  0  0  0  0  0
    0.0000    0.0000    0.0000 H   0  0  0  0  0  0  0  0  0  0  0  0
    0.0000    0.0000    0.0000 H   0  0  0  0  0  0  0  0  0  0  0  0
    0.0000    0.0000    0.0000 H   0  0  0  0  0  0  0  0  0  0  0  0
    0.0000    0.0000    0.0000 H   0  0  0  0  0  0  0  0  0  0  0  0
    0.0000    0.0000    0.0000 H   0  0  0  0  0  0  0  0  0  0  0  0
    0.0000    0.0000    0.0000 H   0  0  0  0  0  0  0  0  0  0  0  0
    0.0000    0.0000    0.0000 H   0  0  0  0  0  0  0  0  0  0  0  0
    0.0000    0.0000    0.0000 H   0  0  0  0  0  0  0  0  0  0  0  0
    0.0000    0.0000    0.0000 H   0  0  0  0  0  0  0  0  0  0  0  0
    0.0000    0.0000    0.0000 H   0  0  0  0  0  0  0  0  0  0  0  0
    0.0000    0.0000    0.0000 H   0  0  0  0  0  0  0  0  0  0  0  0
    0.0000    0.0000    0.0000 H   0  0  0  0  0  0  0  0  0  0  0  0
    0.0000    0.0000    0.0000 H   0  0  0  0  0  0  0  0  0  0  0  0
    0.0000    0.0000    0.0000 H   0  0  0  0  0  0  0  0  0  0  0  0
    0.0000    0.0000    0.0000 H   0  0  0  0  0  0  0  0  0  0  0  0
  1  3  1  0
  3  2  1  0
  4  2  1  0
  5  7  1  0
  6  8  1  0
  7  4  1  0
  4  8  1  0
  9  1  1  0
  1  6  1  0
  5  1  1  0
  2 10  1  0
 10 11  1  0
 11 12  1  0
 11 13  2  0
 12 14  1  0
 12 15  1  0
 12 16  1  0
 18 17  2  0
 15 17  1  0
 19 18  1  0
 20 15  2  0
 21 19  2  0
 21 20  1  0
 16 22  2  0
 23 22  1  0
 24 16  1  0
 25 23  2  0
 26 24  2  0
 26 25  1  0
  2 27  1  0
  3 28  1  0
  3 29  1  0
  4 30  1  0
  5 31  1  0
  5 32  1  0
  6 33  1  0
  6 34  1  0
  7 35  1  0
  7 36  1  0
  8 37  1  0
  8 38  1  0
  9 39  1  0
  9 40  1  0
  9 41  1  0
 14 42  1  0
 17 43  1  0
 18 44  1  0
 19 45  1  0
 20 46  1  0
 21 47  1  0
 22 48  1  0
 23 49  1  0
 24 50  1  0
 25 51  1  0
 26 52  1  0
M  CHG  1   1   1
M  END
>  <ALOGPS_LOGP>  (1) 
-0.50

>  <ALOGPS_LOGS>  (1) 
-6.01

>  <ALOGPS_SOLUBILITY>  (1) 
3.77e-04 g/l

>  <DATABASE_ID>  (1) 
DB00771

>  <DATABASE_NAME>  (1) 
drugbank

>  <DRUGBANK_ID>  (1) 
DB00771

>  <DRUG_GROUPS>  (1) 
approved

>  <EXACT_MASS>  (1) 
352.191268703

>  <FORMULA>  (1) 
C22H26NO3

>  <GENERIC_NAME>  (1) 
Clidinium

>  <INCHI_IDENTIFIER>  (1) 
InChI=1S/C22H26NO3/c1-23-14-12-17(13-15-23)20(16-23)26-21(24)22(25,18-8-4-2-5-9-18)19-10-6-3-7-11-19/h2-11,17,20,25H,12-16H2,1H3/q+1/t17-,20?,23+

>  <INCHI_KEY>  (1) 
HOOSGZJRQIVJSZ-NNBUQUNQSA-N

>  <INTERNATIONAL_BRANDS>  (1) 
Dolibrax; Porsucon; Quarzan; Sedaspa

>  <JCHEM_ACCEPTOR_COUNT>  (1) 
2

>  <JCHEM_AVERAGE_POLARIZABILITY>  (1) 
38.76148239622168

>  <JCHEM_BIOAVAILABILITY>  (1) 
1

>  <JCHEM_DONOR_COUNT>  (1) 
1

>  <JCHEM_FORMAL_CHARGE>  (1) 
1

>  <JCHEM_GHOSE_FILTER>  (1) 
0

>  <JCHEM_IUPAC>  (1) 
(1s,4s)-3-[(2-hydroxy-2,2-diphenylacetyl)oxy]-1-methyl-1-azabicyclo[2.2.2]octan-1-ium

>  <JCHEM_LOGP>  (1) 
-1.0832464701384124

>  <JCHEM_MDDR_LIKE_RULE>  (1) 
0

>  <JCHEM_NUMBER_OF_RINGS>  (1) 
4

>  <JCHEM_PHYSIOLOGICAL_CHARGE>  (1) 
1

>  <JCHEM_PKA_STRONGEST_ACIDIC>  (1) 
11.04750383885012

>  <JCHEM_PKA_STRONGEST_BASIC>  (1) 
-4.527621820886957

>  <JCHEM_POLAR_SURFACE_AREA>  (1) 
46.53

>  <JCHEM_REFRACTIVITY>  (1) 
112.13510000000004

>  <JCHEM_ROTATABLE_BOND_COUNT>  (1) 
5

>  <JCHEM_RULE_OF_FIVE>  (1) 
1

>  <JCHEM_TRADITIONAL_IUPAC>  (1) 
clidinium

>  <JCHEM_VEBER_RULE>  (1) 
0

>  <MOLECULAR_WEIGHT>  (1) 
352.4467

>  <PRODUCTS>  (1) 
Chlorax; Chlordiazepoxide Hydrochloride And Clidinium Bromide; Chlordiazepoxide Hydrochloride and Clidinium Bromide; Chlordiazepoxide Hydrochloride/Clidinium Bromide; Corium Cap; Librax; Nu-chlorax Capsules USP; Pro Chlorax

>  <SALTS>  (1) 
Clidinium Bromide

>  <SECONDARY_ACCESSION_NUMBERS>  (1) 
APRD00737

>  <SMILES>  (1) 
C[N@@+]12CC[C@@H](CC1)C(C2)OC(=O)C(O)(C1=CC=CC=C1)C1=CC=CC=C1

>  <SYNONYMS>  (1) 
3-(2-Hydroxy-2,2-diphenyl-acetoxy)-1-methyl-1-azonia-bicyclo[2.2.2]octane; 3-hydroxy-1-methylquinuclidinium benzilate ester; Bromure de Clidinium; Bromuro de clidinio; Clidinii Bromidum; Clidinium bromid; N-methyl quinuclidinyl benzilate

$$$$
