879
     RDKit          2D

 26 27  0  0  1  0  0  0  0  0999 V2000
    2.6665   -1.4952    0.0000 S   0  0  0  0  0  0  0  0  0  0  0  0
    4.5080    2.2494    0.0000 F   0  0  0  0  0  0  0  0  0  0  0  0
    3.7465   -0.7106    0.0000 O   0  0  0  0  0  0  0  0  0  0  0  0
    3.6409   -2.9164    0.0000 O   0  0  0  0  0  0  0  0  0  0  0  0
    1.6500    0.5994    0.0000 O   0  0  0  0  0  0  0  0  0  0  0  0
    3.0791    0.5994    0.0000 N   0  0  0  0  0  0  0  0  0  0  0  0
    2.3645    1.8369    0.0000 N   0  0  0  0  0  0  0  0  0  0  0  0
    3.0791    3.0744    0.0000 N   0  0  0  0  0  0  0  0  0  0  0  0
    3.0791   -0.2256    0.0000 C   0  0  0  0  0  0  0  0  0  0  0  0
    2.4115   -0.7106    0.0000 C   0  0  0  0  0  0  0  0  0  0  0  0
    3.4916   -1.4952    0.0000 C   0  0  0  0  0  0  0  0  0  0  0  0
    3.9764   -2.1627    0.0000 C   0  0  0  0  0  0  0  0  0  0  0  0
    3.7935    1.0119    0.0000 C   0  0  0  0  0  0  0  0  0  0  0  0
    2.3645    1.0119    0.0000 C   0  0  0  0  0  0  0  0  0  0  0  0
    3.7935    1.8369    0.0000 C   0  0  0  0  0  0  0  0  0  0  0  0
    3.0791    2.2494    0.0000 C   0  0  0  0  0  0  0  0  0  0  0  0
    0.0000    0.0000    0.0000 H   0  0  0  0  0  0  0  0  0  0  0  0
    0.0000    0.0000    0.0000 H   0  0  0  0  0  0  0  0  0  0  0  0
    0.0000    0.0000    0.0000 H   0  0  0  0  0  0  0  0  0  0  0  0
    0.0000    0.0000    0.0000 H   0  0  0  0  0  0  0  0  0  0  0  0
    0.0000    0.0000    0.0000 H   0  0  0  0  0  0  0  0  0  0  0  0
    0.0000    0.0000    0.0000 H   0  0  0  0  0  0  0  0  0  0  0  0
    0.0000    0.0000    0.0000 H   0  0  0  0  0  0  0  0  0  0  0  0
    0.0000    0.0000    0.0000 H   0  0  0  0  0  0  0  0  0  0  0  0
    0.0000    0.0000    0.0000 H   0  0  0  0  0  0  0  0  0  0  0  0
    0.0000    0.0000    0.0000 H   0  0  0  0  0  0  0  0  0  0  0  0
  1 10  1  0
  1 11  1  0
  2 15  1  0
  3  9  1  0
  3 11  1  0
  4 12  1  0
  5 14  2  0
  9  6  1  1
  6 13  1  0
  6 14  1  0
  7 14  1  0
  7 16  2  0
  8 16  1  0
  9 10  1  0
 11 12  1  6
 13 15  2  0
 15 16  1  0
  4 17  1  0
  8 18  1  0
  8 19  1  0
  9 20  1  0
 10 21  1  0
 10 22  1  0
 11 23  1  0
 12 24  1  0
 12 25  1  0
 13 26  1  0
M  END
>  <ALOGPS_LOGP>  (1) 
-0.80

>  <ALOGPS_LOGS>  (1) 
-2.09

>  <ALOGPS_SOLUBILITY>  (1) 
2.00e+00 g/l

>  <DATABASE_ID>  (1) 
DB00879

>  <DATABASE_NAME>  (1) 
drugbank

>  <DRUGBANK_ID>  (1) 
DB00879

>  <DRUG_GROUPS>  (1) 
approved; investigational

>  <EXACT_MASS>  (1) 
247.042690096

>  <FORMULA>  (1) 
C8H10FN3O3S

>  <GENERIC_NAME>  (1) 
Emtricitabine

>  <INCHI_IDENTIFIER>  (1) 
InChI=1S/C8H10FN3O3S/c9-4-1-12(8(14)11-7(4)10)5-3-16-6(2-13)15-5/h1,5-6,13H,2-3H2,(H2,10,11,14)/t5-,6+/m0/s1

>  <INCHI_KEY>  (1) 
XQSPYNMVSIKCOC-NTSWFWBYSA-N

>  <INTERNATIONAL_BRANDS>  (1) 
Coviracil

>  <JCHEM_ACCEPTOR_COUNT>  (1) 
5

>  <JCHEM_AVERAGE_POLARIZABILITY>  (1) 
21.791009606969588

>  <JCHEM_BIOAVAILABILITY>  (1) 
1

>  <JCHEM_DONOR_COUNT>  (1) 
2

>  <JCHEM_FORMAL_CHARGE>  (1) 
0

>  <JCHEM_GHOSE_FILTER>  (1) 
0

>  <JCHEM_IUPAC>  (1) 
4-amino-5-fluoro-1-[(2R,5S)-2-(hydroxymethyl)-1,3-oxathiolan-5-yl]-1,2-dihydropyrimidin-2-one

>  <JCHEM_LOGP>  (1) 
-0.8956646779999999

>  <JCHEM_MDDR_LIKE_RULE>  (1) 
0

>  <JCHEM_NUMBER_OF_RINGS>  (1) 
2

>  <JCHEM_PHYSIOLOGICAL_CHARGE>  (1) 
0

>  <JCHEM_PKA_STRONGEST_ACIDIC>  (1) 
14.294605874877231

>  <JCHEM_PKA_STRONGEST_BASIC>  (1) 
-3.107339390328698

>  <JCHEM_POLAR_SURFACE_AREA>  (1) 
88.15

>  <JCHEM_REFRACTIVITY>  (1) 
55.367399999999996

>  <JCHEM_ROTATABLE_BOND_COUNT>  (1) 
2

>  <JCHEM_RULE_OF_FIVE>  (1) 
1

>  <JCHEM_TRADITIONAL_IUPAC>  (1) 
emtricitabine

>  <JCHEM_VEBER_RULE>  (1) 
0

>  <MOLECULAR_WEIGHT>  (1) 
247.247

>  <PRODUCTS>  (1) 
Apo-efavirenz-emtricitabine-tenofovir; Apo-emtricitabine-tenofovir; Atripla; Complera; Descovy; Emtriva; Genvoya; Mylan-efavirenz/emtricitabine/tenofovir Disoproxil Fumarate; Mylan-emtricitabine/tenofovir Disoproxil; Odefsey; PMS-emtricitabine-tenofovir; Stribild; Teva-efavirenz/emtricitabine/tenofovir; Teva-emtricitabine/tenofovir; Truvada

>  <SECONDARY_ACCESSION_NUMBERS>  (1) 
APRD00226

>  <SMILES>  (1) 
NC1=NC(=O)N(C=C1F)[C@@H]1CS[C@H](CO)O1

>  <SYNONYMS>  (1) 
Emtricitabin; Emtricitabina; Emtricitabine; Emtricitabinum

$$$$
