
     RDKit          2D

 56 59  0  0  1  0  0  0  0  0999 V2000
    5.7755   -5.7759    0.0000 C   0  0  0  0  0  0  0  0  0  0  0  0
    5.7755   -6.5707    0.0000 C   0  0  0  0  0  0  0  0  0  0  0  0
    6.4868   -6.9891    0.0000 C   0  0  0  0  0  0  0  0  0  0  0  0
    7.1981   -6.5707    0.0000 C   0  0  0  0  0  0  0  0  0  0  0  0
    7.1981   -5.7759    0.0000 C   0  0  0  0  0  0  0  0  0  0  0  0
    6.4868   -5.3575    0.0000 C   0  0  0  0  0  0  0  0  0  0  0  0
    7.9092   -6.9891    0.0000 C   0  0  0  0  0  0  0  0  0  0  0  0
    8.5786   -6.5707    0.0000 C   0  0  0  0  0  0  0  0  0  0  0  0
    8.5786   -5.7759    0.0000 C   0  0  0  0  0  0  0  0  0  0  0  0
    7.9092   -5.3575    0.0000 C   0  0  0  0  0  0  0  0  0  0  0  0
    9.2898   -5.3575    0.0000 C   0  0  0  0  0  0  0  0  0  0  0  0
    9.2898   -4.5626    0.0000 C   0  0  0  0  0  0  0  0  0  0  0  0
    8.5786   -4.1443    0.0000 C   0  0  0  0  0  0  0  0  0  0  0  0
    7.9092   -4.5626    0.0000 C   0  0  0  0  0  0  0  0  0  0  0  0
    7.9092   -7.8258    0.0000 F   0  0  0  0  0  0  0  0  0  0  0  0
    7.9092   -6.1942    0.0000 Cl  0  0  0  0  0  0  0  0  0  0  0  0
    9.2480   -3.7260    0.0000 C   0  0  0  0  0  0  0  0  0  0  0  0
    7.1981   -4.9810    0.0000 C   0  0  0  0  0  0  0  0  0  0  0  0
    5.0644   -6.9891    0.0000 O   0  0  0  0  0  0  0  0  0  0  0  0
    7.1981   -4.1443    0.0000 O   0  0  0  0  0  0  0  0  0  0  0  0
   10.0458   -4.3170    0.0000 C   0  0  0  0  0  0  0  0  0  0  0  0
   10.5129   -4.9601    0.0000 C   0  0  0  0  0  0  0  0  0  0  0  0
   10.0459   -5.6032    0.0000 C   0  0  0  0  0  0  0  0  0  0  0  0
   10.3008   -3.5323    0.0000 C   0  0  0  0  0  0  0  0  0  0  0  0
   11.1079   -3.3607    0.0000 C   0  0  0  0  0  0  0  0  0  0  0  0
    9.7486   -2.9191    0.0000 O   0  0  0  0  0  0  0  0  0  0  0  0
   11.6598   -3.9739    0.0000 O   0  0  0  0  0  0  0  0  0  0  0  0
   11.3381   -4.9600    0.0000 C   0  0  0  0  0  0  0  0  0  0  0  0
    0.0000    0.0000    0.0000 H   0  0  0  0  0  0  0  0  0  0  0  0
    0.0000    0.0000    0.0000 H   0  0  0  0  0  0  0  0  0  0  0  0
    0.0000    0.0000    0.0000 H   0  0  0  0  0  0  0  0  0  0  0  0
    0.0000    0.0000    0.0000 H   0  0  0  0  0  0  0  0  0  0  0  0
    0.0000    0.0000    0.0000 H   0  0  0  0  0  0  0  0  0  0  0  0
    0.0000    0.0000    0.0000 H   0  0  0  0  0  0  0  0  0  0  0  0
    0.0000    0.0000    0.0000 H   0  0  0  0  0  0  0  0  0  0  0  0
    0.0000    0.0000    0.0000 H   0  0  0  0  0  0  0  0  0  0  0  0
    0.0000    0.0000    0.0000 H   0  0  0  0  0  0  0  0  0  0  0  0
    0.0000    0.0000    0.0000 H   0  0  0  0  0  0  0  0  0  0  0  0
    0.0000    0.0000    0.0000 H   0  0  0  0  0  0  0  0  0  0  0  0
    0.0000    0.0000    0.0000 H   0  0  0  0  0  0  0  0  0  0  0  0
    0.0000    0.0000    0.0000 H   0  0  0  0  0  0  0  0  0  0  0  0
    0.0000    0.0000    0.0000 H   0  0  0  0  0  0  0  0  0  0  0  0
    0.0000    0.0000    0.0000 H   0  0  0  0  0  0  0  0  0  0  0  0
    0.0000    0.0000    0.0000 H   0  0  0  0  0  0  0  0  0  0  0  0
    0.0000    0.0000    0.0000 H   0  0  0  0  0  0  0  0  0  0  0  0
    0.0000    0.0000    0.0000 H   0  0  0  0  0  0  0  0  0  0  0  0
    0.0000    0.0000    0.0000 H   0  0  0  0  0  0  0  0  0  0  0  0
    0.0000    0.0000    0.0000 H   0  0  0  0  0  0  0  0  0  0  0  0
    0.0000    0.0000    0.0000 H   0  0  0  0  0  0  0  0  0  0  0  0
    0.0000    0.0000    0.0000 H   0  0  0  0  0  0  0  0  0  0  0  0
    0.0000    0.0000    0.0000 H   0  0  0  0  0  0  0  0  0  0  0  0
    0.0000    0.0000    0.0000 H   0  0  0  0  0  0  0  0  0  0  0  0
    0.0000    0.0000    0.0000 H   0  0  0  0  0  0  0  0  0  0  0  0
    0.0000    0.0000    0.0000 H   0  0  0  0  0  0  0  0  0  0  0  0
    0.0000    0.0000    0.0000 H   0  0  0  0  0  0  0  0  0  0  0  0
    0.0000    0.0000    0.0000 H   0  0  0  0  0  0  0  0  0  0  0  0
  1  2  1  0
  2  3  1  0
  3  4  2  0
  4  5  1  0
  5  6  1  0
  1  6  2  0
  4  7  1  0
  7  8  1  0
  8  9  1  0
  9 10  1  0
  5 10  1  0
  9 11  1  0
 12 13  1  0
 13 14  1  0
 10 14  1  0
  7 15  1  1
 10 16  1  6
 12 17  1  1
  5 18  1  1
  2 19  2  0
 14 20  1  1
 21 12  1  0
 11 12  1  0
 22 21  1  0
 23 11  1  0
 23 22  1  0
 21 24  1  1
 24 25  1  0
 24 26  2  0
 25 27  1  0
 22 28  1  1
  1 29  1  0
  3 30  1  0
  6 31  1  0
  7 32  1  0
  8 33  1  0
  8 34  1  0
  9 35  1  1
 11 36  1  6
 13 37  1  0
 13 38  1  0
 14 39  1  0
 17 40  1  0
 17 41  1  0
 17 42  1  0
 18 43  1  0
 18 44  1  0
 18 45  1  0
 20 46  1  0
 21 47  1  0
 22 48  1  0
 23 49  1  0
 23 50  1  0
 25 51  1  0
 25 52  1  0
 27 53  1  0
 28 54  1  0
 28 55  1  0
 28 56  1  0
M  END
>  <ALOGPS_LOGP>  (1) 
2.73

>  <ALOGPS_LOGS>  (1) 
-4.44

>  <ALOGPS_SOLUBILITY>  (1) 
1.50e-02 g/l

>  <DATABASE_ID>  (1) 
DB00838

>  <DATABASE_NAME>  (1) 
drugbank

>  <DRUGBANK_ID>  (1) 
DB00838

>  <DRUG_GROUPS>  (1) 
approved

>  <EXACT_MASS>  (1) 
410.166015296

>  <FORMULA>  (1) 
C22H28ClFO4

>  <GENERIC_NAME>  (1) 
Clocortolone

>  <INCHI_IDENTIFIER>  (1) 
InChI=1S/C22H28ClFO4/c1-11-6-13-14-8-16(24)15-7-12(26)4-5-21(15,3)22(14,23)18(28)9-20(13,2)19(11)17(27)10-25/h4-5,7,11,13-14,16,18-19,25,28H,6,8-10H2,1-3H3/t11-,13+,14+,16+,18+,19-,20+,21+,22+/m1/s1

>  <INCHI_KEY>  (1) 
YMTMADLUXIRMGX-RFPWEZLHSA-N

>  <JCHEM_ACCEPTOR_COUNT>  (1) 
4

>  <JCHEM_AVERAGE_POLARIZABILITY>  (1) 
41.79875113918743

>  <JCHEM_BIOAVAILABILITY>  (1) 
1

>  <JCHEM_DONOR_COUNT>  (1) 
2

>  <JCHEM_FORMAL_CHARGE>  (1) 
0

>  <JCHEM_GHOSE_FILTER>  (1) 
1

>  <JCHEM_IUPAC>  (1) 
(1R,2S,8S,10S,11S,13R,14S,15S,17S)-1-chloro-8-fluoro-17-hydroxy-14-(2-hydroxyacetyl)-2,13,15-trimethyltetracyclo[8.7.0.0²,⁷.0¹¹,¹⁵]heptadeca-3,6-dien-5-one

>  <JCHEM_LOGP>  (1) 
2.474821861666665

>  <JCHEM_MDDR_LIKE_RULE>  (1) 
0

>  <JCHEM_NUMBER_OF_RINGS>  (1) 
4

>  <JCHEM_PHYSIOLOGICAL_CHARGE>  (1) 
0

>  <JCHEM_PKA>  (1) 
14.09578395865979

>  <JCHEM_PKA_STRONGEST_ACIDIC>  (1) 
13.533640659774612

>  <JCHEM_PKA_STRONGEST_BASIC>  (1) 
-3.295502639455157

>  <JCHEM_POLAR_SURFACE_AREA>  (1) 
74.6

>  <JCHEM_REFRACTIVITY>  (1) 
105.73639999999997

>  <JCHEM_ROTATABLE_BOND_COUNT>  (1) 
2

>  <JCHEM_RULE_OF_FIVE>  (1) 
1

>  <JCHEM_TRADITIONAL_IUPAC>  (1) 
clocortolona

>  <JCHEM_VEBER_RULE>  (1) 
0

>  <MOLECULAR_WEIGHT>  (1) 
410.907

>  <PRODUCTS>  (1) 
Clocortolone Pivalate; Cloderm

>  <SALTS>  (1) 
Clocortolone acetate; Clocortolone caproate; Clocortolone pivalate

>  <SECONDARY_ACCESSION_NUMBERS>  (1) 
APRD00877

>  <SMILES>  (1) 
[H][C@@]12C[C@@H](C)[C@H](C(=O)CO)[C@@]1(C)C[C@H](O)[C@@]1(Cl)[C@@]2([H])C[C@H](F)C2=CC(=O)C=C[C@]12C

>  <SYNONYMS>  (1) 
9-chloro-6alpha-Fluoro-11beta,21-dihydroxy-16alpha-methyl-1,4-pregnadien-3,20-dione; 9-chloro-6alpha-Fluoro-16alpha-methyl-1,4-pregnadiene-11beta,21-diol-3,20-dione; Clocortolon; Clocortolona; Clocortolone; Clocortolonum

$$$$
