
     RDKit          2D

 49 51  0  0  1  0  0  0  0  0999 V2000
    7.1599   -1.2636    0.0000 C   0  0  0  0  0  0  0  0  0  0  0  0
    7.1599   -0.4386    0.0000 N   0  0  0  0  0  0  0  0  0  0  0  0
    6.4454   -1.6761    0.0000 C   0  0  0  0  0  0  0  0  0  0  0  0
    5.7310   -1.2636    0.0000 C   0  0  0  0  0  0  0  0  0  0  0  0
    5.0165   -1.6761    0.0000 S   0  0  0  0  0  0  0  0  0  0  0  0
    5.0165   -2.5011    0.0000 C   0  0  0  0  0  0  0  0  0  0  0  0
    4.3020   -1.2636    0.0000 C   0  0  0  0  0  0  0  0  0  0  0  0
    3.5875   -1.6761    0.0000 C   0  0  0  0  0  0  0  0  0  0  0  0
    3.5013   -2.4966    0.0000 O   0  0  0  0  0  0  0  0  0  0  0  0
    2.6943   -2.6681    0.0000 C   0  0  0  0  0  0  0  0  0  0  0  0
    2.3588   -3.4218    0.0000 N   0  0  0  0  0  0  0  0  0  0  0  0
    2.7713   -4.1362    0.0000 C   0  0  0  0  0  0  0  0  0  0  0  0
    2.2192   -4.7493    0.0000 N   0  0  0  0  0  0  0  0  0  0  0  0
    1.4656   -4.4138    0.0000 C   0  0  0  0  0  0  0  0  0  0  0  0
    0.7119   -4.7493    0.0000 C   0  0  0  0  0  0  0  0  0  0  0  0
    0.6257   -5.5698    0.0000 N   0  0  0  0  0  0  0  0  0  0  0  0
    0.0445   -4.2644    0.0000 N   0  0  0  0  0  0  0  0  0  0  0  0
    0.1307   -3.4439    0.0000 C   0  0  0  0  0  0  0  0  0  0  0  0
    0.8844   -3.1084    0.0000 N   0  0  0  0  0  0  0  0  0  0  0  0
    1.5518   -3.5933    0.0000 C   0  0  0  0  0  0  0  0  0  0  0  0
    2.2818   -1.9536    0.0000 C   0  0  0  0  0  0  0  0  0  0  0  0
    1.4614   -1.8674    0.0000 O   0  0  0  0  0  0  0  0  0  0  0  0
    2.8339   -1.3405    0.0000 C   0  0  0  0  0  0  0  0  0  0  0  0
    2.6623   -0.5335    0.0000 O   0  0  0  0  0  0  0  0  0  0  0  0
    7.8744   -1.6761    0.0000 C   0  0  0  0  0  0  0  0  0  0  0  0
    8.5888   -1.2636    0.0000 O   0  0  0  0  0  0  0  0  0  0  0  0
    7.8744   -2.5011    0.0000 O   0  0  0  0  0  0  0  0  0  0  0  0
    0.0000    0.0000    0.0000 H   0  0  0  0  0  0  0  0  0  0  0  0
    0.0000    0.0000    0.0000 H   0  0  0  0  0  0  0  0  0  0  0  0
    0.0000    0.0000    0.0000 H   0  0  0  0  0  0  0  0  0  0  0  0
    0.0000    0.0000    0.0000 H   0  0  0  0  0  0  0  0  0  0  0  0
    0.0000    0.0000    0.0000 H   0  0  0  0  0  0  0  0  0  0  0  0
    0.0000    0.0000    0.0000 H   0  0  0  0  0  0  0  0  0  0  0  0
    0.0000    0.0000    0.0000 H   0  0  0  0  0  0  0  0  0  0  0  0
    0.0000    0.0000    0.0000 H   0  0  0  0  0  0  0  0  0  0  0  0
    0.0000    0.0000    0.0000 H   0  0  0  0  0  0  0  0  0  0  0  0
    0.0000    0.0000    0.0000 H   0  0  0  0  0  0  0  0  0  0  0  0
    0.0000    0.0000    0.0000 H   0  0  0  0  0  0  0  0  0  0  0  0
    0.0000    0.0000    0.0000 H   0  0  0  0  0  0  0  0  0  0  0  0
    0.0000    0.0000    0.0000 H   0  0  0  0  0  0  0  0  0  0  0  0
    0.0000    0.0000    0.0000 H   0  0  0  0  0  0  0  0  0  0  0  0
    0.0000    0.0000    0.0000 H   0  0  0  0  0  0  0  0  0  0  0  0
    0.0000    0.0000    0.0000 H   0  0  0  0  0  0  0  0  0  0  0  0
    0.0000    0.0000    0.0000 H   0  0  0  0  0  0  0  0  0  0  0  0
    0.0000    0.0000    0.0000 H   0  0  0  0  0  0  0  0  0  0  0  0
    0.0000    0.0000    0.0000 H   0  0  0  0  0  0  0  0  0  0  0  0
    0.0000    0.0000    0.0000 H   0  0  0  0  0  0  0  0  0  0  0  0
    0.0000    0.0000    0.0000 H   0  0  0  0  0  0  0  0  0  0  0  0
    0.0000    0.0000    0.0000 H   0  0  0  0  0  0  0  0  0  0  0  0
  1  2  1  6
  1  3  1  0
  3  4  1  0
  4  5  1  0
  5  6  1  0
  5  7  1  0
  8  7  1  1
  8  9  1  0
  9 10  1  0
 10 11  1  1
 11 12  1  0
 12 13  2  0
 13 14  1  0
 14 15  2  0
 15 16  1  0
 15 17  1  0
 17 18  2  0
 18 19  1  0
 19 20  2  0
 11 20  1  0
 14 20  1  0
 10 21  1  0
 21 22  1  6
 21 23  1  0
  8 23  1  0
 23 24  1  6
  1 25  1  0
 25 26  1  0
 25 27  2  0
  1 28  1  0
  2 29  1  0
  2 30  1  0
  3 31  1  0
  3 32  1  0
  4 33  1  0
  4 34  1  0
  6 35  1  0
  6 36  1  0
  6 37  1  0
  7 38  1  0
  7 39  1  0
  8 40  1  0
 10 41  1  0
 12 42  1  0
 16 43  1  0
 16 44  1  0
 18 45  1  0
 21 46  1  0
 22 47  1  0
 23 48  1  0
 24 49  1  0
M  CHG  2   5   1  26  -1
M  END
>  <ALOGPS_LOGP>  (1) 
0.05

>  <ALOGPS_LOGS>  (1) 
-2.45

>  <ALOGPS_SOLUBILITY>  (1) 
1.62e+00 g/l

>  <DATABASE_ID>  (1) 
DB00118

>  <DATABASE_NAME>  (1) 
drugbank

>  <DRUGBANK_ID>  (1) 
DB00118

>  <DRUG_GROUPS>  (1) 
approved; investigational; nutraceutical

>  <EXACT_MASS>  (1) 
398.137239006

>  <FORMULA>  (1) 
C15H22N6O5S

>  <GENERIC_NAME>  (1) 
Ademetionine

>  <INCHI_IDENTIFIER>  (1) 
InChI=1S/C15H22N6O5S/c1-27(3-2-7(16)15(24)25)4-8-10(22)11(23)14(26-8)21-6-20-9-12(17)18-5-19-13(9)21/h5-8,10-11,14,22-23H,2-4,16H2,1H3,(H2-,17,18,19,24,25)/t7-,8+,10+,11+,14+,27?/m0/s1

>  <INCHI_KEY>  (1) 
MEFKEPWMEQBLKI-AIRLBKTGSA-N

>  <INTERNATIONAL_BRANDS>  (1) 
Sam-Sulfate; SAMe; SAMe Rx-Mood

>  <JCHEM_ACCEPTOR_COUNT>  (1) 
10

>  <JCHEM_ATOM_COUNT>  (1) 
49

>  <JCHEM_AVERAGE_POLARIZABILITY>  (1) 
39.26098478969182

>  <JCHEM_BIOAVAILABILITY>  (1) 
1

>  <JCHEM_DONOR_COUNT>  (1) 
4

>  <JCHEM_FORMAL_CHARGE>  (1) 
0

>  <JCHEM_GHOSE_FILTER>  (1) 
0

>  <JCHEM_IUPAC>  (1) 
(2S)-2-amino-4-({[(2S,3S,4R,5R)-5-(6-amino-9H-purin-9-yl)-3,4-dihydroxyoxolan-2-yl]methyl}(methyl)sulfaniumyl)butanoate

>  <JCHEM_LOGP>  (1) 
-5.318663457073791

>  <JCHEM_MDDR_LIKE_RULE>  (1) 
1

>  <JCHEM_NUMBER_OF_RINGS>  (1) 
3

>  <JCHEM_PHYSIOLOGICAL_CHARGE>  (1) 
1

>  <JCHEM_PKA>  (1) 
12.444250657541687

>  <JCHEM_PKA_STRONGEST_ACIDIC>  (1) 
1.7027541004150226

>  <JCHEM_PKA_STRONGEST_BASIC>  (1) 
9.414366078981788

>  <JCHEM_POLAR_SURFACE_AREA>  (1) 
185.46

>  <JCHEM_REFRACTIVITY>  (1) 
107.07199999999997

>  <JCHEM_ROTATABLE_BOND_COUNT>  (1) 
7

>  <JCHEM_RULE_OF_FIVE>  (1) 
1

>  <JCHEM_TRADITIONAL_IUPAC>  (1) 
S-adenosyl methionine

>  <JCHEM_VEBER_RULE>  (1) 
0

>  <MOLECULAR_WEIGHT>  (1) 
398.44

>  <SALTS>  (1) 
Ademetionine butanedisulfonate; Ademetionine disulfate ditosylate; Ademetionine disulfate monotosylate; Ademetionine disulfate tosylate; Ademetionine tosylate

>  <SECONDARY_ACCESSION_NUMBERS>  (1) 
NUTR00052

>  <SMILES>  (1) 
[H][C@](N)(CC[S+](C)C[C@@]1([H])O[C@@]([H])(N2C=NC3=C(N)N=CN=C23)[C@]([H])(O)[C@]1([H])O)C([O-])=O

>  <SYNONYMS>  (1) 
AdoMet; S-Adenosylmethionine; SAM; SAM-e; SAMe

$$$$
