333
     RDKit          2D

 50 51  0  0  1  0  0  0  0  0999 V2000
    5.8950    0.7144    0.0000 O   0  0  0  0  0  0  0  0  0  0  0  0
    2.4253   -0.2482    0.0000 N   0  0  0  0  0  0  0  0  0  0  0  0
    4.6575    0.0000    0.0000 C   0  0  0  0  0  0  0  0  0  0  0  0
    3.8325    0.0000    0.0000 C   0  0  0  0  0  0  0  0  0  0  0  0
    3.0572    0.2822    0.0000 C   0  0  0  0  0  0  0  0  0  0  0  0
    4.6575    0.8250    0.0000 C   0  0  0  0  0  0  0  0  0  0  0  0
    4.6575   -0.8250    0.0000 C   0  0  0  0  0  0  0  0  0  0  0  0
    5.4825    0.0000    0.0000 C   0  0  0  0  0  0  0  0  0  0  0  0
    2.9140    1.0946    0.0000 C   0  0  0  0  0  0  0  0  0  0  0  0
    5.8950   -0.7144    0.0000 C   0  0  0  0  0  0  0  0  0  0  0  0
    3.9430    1.2375    0.0000 C   0  0  0  0  0  0  0  0  0  0  0  0
    5.3720   -1.2375    0.0000 C   0  0  0  0  0  0  0  0  0  0  0  0
    5.3720    1.2375    0.0000 C   0  0  0  0  0  0  0  0  0  0  0  0
    3.9430   -1.2375    0.0000 C   0  0  0  0  0  0  0  0  0  0  0  0
    1.6500    0.0341    0.0000 C   0  0  0  0  0  0  0  0  0  0  0  0
    2.5685   -1.0605    0.0000 C   0  0  0  0  0  0  0  0  0  0  0  0
    6.7200   -0.7144    0.0000 C   0  0  0  0  0  0  0  0  0  0  0  0
    3.9430    2.0625    0.0000 C   0  0  0  0  0  0  0  0  0  0  0  0
    5.3720   -2.0625    0.0000 C   0  0  0  0  0  0  0  0  0  0  0  0
    5.3720    2.0625    0.0000 C   0  0  0  0  0  0  0  0  0  0  0  0
    3.9430   -2.0625    0.0000 C   0  0  0  0  0  0  0  0  0  0  0  0
    4.6575    2.4750    0.0000 C   0  0  0  0  0  0  0  0  0  0  0  0
    4.6575   -2.4750    0.0000 C   0  0  0  0  0  0  0  0  0  0  0  0
    0.0000    0.0000    0.0000 H   0  0  0  0  0  0  0  0  0  0  0  0
    0.0000    0.0000    0.0000 H   0  0  0  0  0  0  0  0  0  0  0  0
    0.0000    0.0000    0.0000 H   0  0  0  0  0  0  0  0  0  0  0  0
    0.0000    0.0000    0.0000 H   0  0  0  0  0  0  0  0  0  0  0  0
    0.0000    0.0000    0.0000 H   0  0  0  0  0  0  0  0  0  0  0  0
    0.0000    0.0000    0.0000 H   0  0  0  0  0  0  0  0  0  0  0  0
    0.0000    0.0000    0.0000 H   0  0  0  0  0  0  0  0  0  0  0  0
    0.0000    0.0000    0.0000 H   0  0  0  0  0  0  0  0  0  0  0  0
    0.0000    0.0000    0.0000 H   0  0  0  0  0  0  0  0  0  0  0  0
    0.0000    0.0000    0.0000 H   0  0  0  0  0  0  0  0  0  0  0  0
    0.0000    0.0000    0.0000 H   0  0  0  0  0  0  0  0  0  0  0  0
    0.0000    0.0000    0.0000 H   0  0  0  0  0  0  0  0  0  0  0  0
    0.0000    0.0000    0.0000 H   0  0  0  0  0  0  0  0  0  0  0  0
    0.0000    0.0000    0.0000 H   0  0  0  0  0  0  0  0  0  0  0  0
    0.0000    0.0000    0.0000 H   0  0  0  0  0  0  0  0  0  0  0  0
    0.0000    0.0000    0.0000 H   0  0  0  0  0  0  0  0  0  0  0  0
    0.0000    0.0000    0.0000 H   0  0  0  0  0  0  0  0  0  0  0  0
    0.0000    0.0000    0.0000 H   0  0  0  0  0  0  0  0  0  0  0  0
    0.0000    0.0000    0.0000 H   0  0  0  0  0  0  0  0  0  0  0  0
    0.0000    0.0000    0.0000 H   0  0  0  0  0  0  0  0  0  0  0  0
    0.0000    0.0000    0.0000 H   0  0  0  0  0  0  0  0  0  0  0  0
    0.0000    0.0000    0.0000 H   0  0  0  0  0  0  0  0  0  0  0  0
    0.0000    0.0000    0.0000 H   0  0  0  0  0  0  0  0  0  0  0  0
    0.0000    0.0000    0.0000 H   0  0  0  0  0  0  0  0  0  0  0  0
    0.0000    0.0000    0.0000 H   0  0  0  0  0  0  0  0  0  0  0  0
    0.0000    0.0000    0.0000 H   0  0  0  0  0  0  0  0  0  0  0  0
    0.0000    0.0000    0.0000 H   0  0  0  0  0  0  0  0  0  0  0  0
  1  8  2  0
  2  5  1  0
  2 15  1  0
  2 16  1  0
  3  4  1  0
  3  6  1  0
  3  7  1  0
  3  8  1  0
  4  5  1  0
  5  9  1  0
  6 11  2  0
  6 13  1  0
  7 12  2  0
  7 14  1  0
  8 10  1  0
 10 17  1  0
 11 18  1  0
 12 19  1  0
 13 20  2  0
 14 21  2  0
 18 22  2  0
 19 23  2  0
 20 22  1  0
 21 23  1  0
  4 24  1  0
  4 25  1  0
  5 26  1  0
  9 27  1  0
  9 28  1  0
  9 29  1  0
 10 30  1  0
 10 31  1  0
 11 32  1  0
 12 33  1  0
 13 34  1  0
 14 35  1  0
 15 36  1  0
 15 37  1  0
 15 38  1  0
 16 39  1  0
 16 40  1  0
 16 41  1  0
 17 42  1  0
 17 43  1  0
 17 44  1  0
 18 45  1  0
 19 46  1  0
 20 47  1  0
 21 48  1  0
 22 49  1  0
 23 50  1  0
M  END
>  <ALOGPS_LOGP>  (1) 
4.14

>  <ALOGPS_LOGS>  (1) 
-4.72

>  <ALOGPS_SOLUBILITY>  (1) 
5.90e-03 g/l

>  <DATABASE_ID>  (1) 
DB00333

>  <DATABASE_NAME>  (1) 
drugbank

>  <DRUGBANK_ID>  (1) 
DB00333

>  <DRUG_GROUPS>  (1) 
approved

>  <EXACT_MASS>  (1) 
309.209264491

>  <FORMULA>  (1) 
C21H27NO

>  <GENERIC_NAME>  (1) 
Methadone

>  <INCHI_IDENTIFIER>  (1) 
InChI=1S/C21H27NO/c1-5-20(23)21(16-17(2)22(3)4,18-12-8-6-9-13-18)19-14-10-7-11-15-19/h6-15,17H,5,16H2,1-4H3

>  <INCHI_KEY>  (1) 
USSIQXCVUWKGNF-UHFFFAOYSA-N

>  <INTERNATIONAL_BRANDS>  (1) 
Adolan; Depridol; Heptadon; Heptanon; Ketalgin; Mephenon; Physeptone

>  <JCHEM_ACCEPTOR_COUNT>  (1) 
2

>  <JCHEM_AVERAGE_POLARIZABILITY>  (1) 
36.291649736892055

>  <JCHEM_BIOAVAILABILITY>  (1) 
1

>  <JCHEM_DONOR_COUNT>  (1) 
0

>  <JCHEM_FORMAL_CHARGE>  (1) 
0

>  <JCHEM_GHOSE_FILTER>  (1) 
1

>  <JCHEM_IUPAC>  (1) 
6-(dimethylamino)-4,4-diphenylheptan-3-one

>  <JCHEM_LOGP>  (1) 
5.007171635333333

>  <JCHEM_MDDR_LIKE_RULE>  (1) 
0

>  <JCHEM_NUMBER_OF_RINGS>  (1) 
2

>  <JCHEM_PHYSIOLOGICAL_CHARGE>  (1) 
1

>  <JCHEM_PKA_STRONGEST_ACIDIC>  (1) 
18.780818634444923

>  <JCHEM_PKA_STRONGEST_BASIC>  (1) 
9.117210098088941

>  <JCHEM_POLAR_SURFACE_AREA>  (1) 
20.310000000000002

>  <JCHEM_REFRACTIVITY>  (1) 
97.26890000000003

>  <JCHEM_ROTATABLE_BOND_COUNT>  (1) 
7

>  <JCHEM_RULE_OF_FIVE>  (1) 
0

>  <JCHEM_TRADITIONAL_IUPAC>  (1) 
methadone

>  <JCHEM_VEBER_RULE>  (1) 
1

>  <MOLECULAR_WEIGHT>  (1) 
309.4452

>  <PRODUCTS>  (1) 
Diskets; Dolophine; Metadol; Metadol-D; Methadone Hydrochloride; Methadose; Methadose Dispersible; Methadose Sugar-free; PMS-methadone

>  <SALTS>  (1) 
Methadone Hydrochloride

>  <SECONDARY_ACCESSION_NUMBERS>  (1) 
APRD00485

>  <SMILES>  (1) 
CCC(=O)C(CC(C)N(C)C)(C1=CC=CC=C1)C1=CC=CC=C1

>  <SYNONYMS>  (1) 
(+/-)-Methadone; (Â±)-methadone; 6-Dimethylamino-4,4-diphenyl-3-heptanone; dl-Methadone

$$$$
