310
     RDKit          2D

 33 35  0  0  1  0  0  0  0  0999 V2000
    6.5328    2.0236    0.0000 Cl  0  0  0  0  0  0  0  0  0  0  0  0
    6.7024    0.3823    0.0000 S   0  0  0  0  0  0  0  0  0  0  0  0
    3.6061    0.8735    0.0000 O   0  0  0  0  0  0  0  0  0  0  0  0
    4.1159   -2.0236    0.0000 O   0  0  0  0  0  0  0  0  0  0  0  0
    7.0393    1.1354    0.0000 O   0  0  0  0  0  0  0  0  0  0  0  0
    6.3656   -0.3708    0.0000 O   0  0  0  0  0  0  0  0  0  0  0  0
    4.3411   -0.5754    0.0000 N   0  0  0  0  0  0  0  0  0  0  0  0
    7.4556    0.0454    0.0000 N   0  0  0  0  0  0  0  0  0  0  0  0
    3.8597    0.0884    0.0000 C   0  0  0  0  0  0  0  0  0  0  0  0
    3.0790   -0.1629    0.0000 C   0  0  0  0  0  0  0  0  0  0  0  0
    4.5279    0.5722    0.0000 C   0  0  0  0  0  0  0  0  0  0  0  0
    3.0790   -0.9880    0.0000 C   0  0  0  0  0  0  0  0  0  0  0  0
    3.8597   -1.2393    0.0000 C   0  0  0  0  0  0  0  0  0  0  0  0
    5.2810    0.2354    0.0000 C   0  0  0  0  0  0  0  0  0  0  0  0
    2.3645    0.2496    0.0000 C   0  0  0  0  0  0  0  0  0  0  0  0
    4.4431    1.3929    0.0000 C   0  0  0  0  0  0  0  0  0  0  0  0
    5.9493    0.7192    0.0000 C   0  0  0  0  0  0  0  0  0  0  0  0
    2.3645   -1.4005    0.0000 C   0  0  0  0  0  0  0  0  0  0  0  0
    1.6500   -0.1629    0.0000 C   0  0  0  0  0  0  0  0  0  0  0  0
    5.1114    1.8767    0.0000 C   0  0  0  0  0  0  0  0  0  0  0  0
    5.8645    1.5398    0.0000 C   0  0  0  0  0  0  0  0  0  0  0  0
    1.6500   -0.9880    0.0000 C   0  0  0  0  0  0  0  0  0  0  0  0
    0.0000    0.0000    0.0000 H   0  0  0  0  0  0  0  0  0  0  0  0
    0.0000    0.0000    0.0000 H   0  0  0  0  0  0  0  0  0  0  0  0
    0.0000    0.0000    0.0000 H   0  0  0  0  0  0  0  0  0  0  0  0
    0.0000    0.0000    0.0000 H   0  0  0  0  0  0  0  0  0  0  0  0
    0.0000    0.0000    0.0000 H   0  0  0  0  0  0  0  0  0  0  0  0
    0.0000    0.0000    0.0000 H   0  0  0  0  0  0  0  0  0  0  0  0
    0.0000    0.0000    0.0000 H   0  0  0  0  0  0  0  0  0  0  0  0
    0.0000    0.0000    0.0000 H   0  0  0  0  0  0  0  0  0  0  0  0
    0.0000    0.0000    0.0000 H   0  0  0  0  0  0  0  0  0  0  0  0
    0.0000    0.0000    0.0000 H   0  0  0  0  0  0  0  0  0  0  0  0
    0.0000    0.0000    0.0000 H   0  0  0  0  0  0  0  0  0  0  0  0
  1 21  1  0
  2  5  2  0
  2  6  2  0
  2  8  1  0
  2 17  1  0
  3  9  1  0
  4 13  2  0
  7  9  1  0
  7 13  1  0
  9 10  1  0
  9 11  1  0
 10 12  2  0
 10 15  1  0
 11 14  2  0
 11 16  1  0
 12 13  1  0
 12 18  1  0
 14 17  1  0
 15 19  2  0
 16 20  2  0
 17 21  2  0
 18 22  2  0
 19 22  1  0
 20 21  1  0
  3 23  1  0
  7 24  1  0
  8 25  1  0
  8 26  1  0
 14 27  1  0
 15 28  1  0
 16 29  1  0
 18 30  1  0
 19 31  1  0
 20 32  1  0
 22 33  1  0
M  END
>  <ALOGPS_LOGP>  (1) 
1.27

>  <ALOGPS_LOGS>  (1) 
-3.81

>  <ALOGPS_SOLUBILITY>  (1) 
5.28e-02 g/l

>  <DATABASE_ID>  (1) 
DB00310

>  <DATABASE_NAME>  (1) 
drugbank

>  <DRUGBANK_ID>  (1) 
DB00310

>  <DRUG_GROUPS>  (1) 
approved

>  <EXACT_MASS>  (1) 
338.012805247

>  <FORMULA>  (1) 
C14H11ClN2O4S

>  <GENERIC_NAME>  (1) 
Chlorthalidone

>  <INCHI_IDENTIFIER>  (1) 
InChI=1S/C14H11ClN2O4S/c15-11-6-5-8(7-12(11)22(16,20)21)14(19)10-4-2-1-3-9(10)13(18)17-14/h1-7,19H,(H,17,18)(H2,16,20,21)

>  <INCHI_KEY>  (1) 
JIVPVXMEBJLZRO-UHFFFAOYSA-N

>  <INTERNATIONAL_BRANDS>  (1) 
Hygroton; Saluretin

>  <JCHEM_ACCEPTOR_COUNT>  (1) 
4

>  <JCHEM_AVERAGE_POLARIZABILITY>  (1) 
31.230739926305734

>  <JCHEM_BIOAVAILABILITY>  (1) 
1

>  <JCHEM_DONOR_COUNT>  (1) 
3

>  <JCHEM_FORMAL_CHARGE>  (1) 
0

>  <JCHEM_GHOSE_FILTER>  (1) 
1

>  <JCHEM_IUPAC>  (1) 
2-chloro-5-(1-hydroxy-3-oxo-2,3-dihydro-1H-isoindol-1-yl)benzene-1-sulfonamide

>  <JCHEM_LOGP>  (1) 
1.6034210690000001

>  <JCHEM_MDDR_LIKE_RULE>  (1) 
0

>  <JCHEM_NUMBER_OF_RINGS>  (1) 
3

>  <JCHEM_PHYSIOLOGICAL_CHARGE>  (1) 
0

>  <JCHEM_PKA>  (1) 
9.223931695226906

>  <JCHEM_PKA_STRONGEST_ACIDIC>  (1) 
8.579575904845667

>  <JCHEM_PKA_STRONGEST_BASIC>  (1) 
-2.632794743888779

>  <JCHEM_POLAR_SURFACE_AREA>  (1) 
109.49

>  <JCHEM_REFRACTIVITY>  (1) 
81.30050000000001

>  <JCHEM_ROTATABLE_BOND_COUNT>  (1) 
2

>  <JCHEM_RULE_OF_FIVE>  (1) 
1

>  <JCHEM_TRADITIONAL_IUPAC>  (1) 
chlorthalidone

>  <JCHEM_VEBER_RULE>  (1) 
0

>  <MOLECULAR_WEIGHT>  (1) 
338.766

>  <PRODUCTS>  (1) 
Apo Chlorthalidone Tab 100mg; Apo-atenidone; Atenolol and Chlorthalidone; Chlorthalidone; Chlorthalidone 100mg Tablets; Chlorthalidone 50mg Tablets; Chlorthalidone Tab 100mg; Chlorthalidone Tab 50mg; Clorpres; Combipres 0.1/15 Tab; Edarbyclor; Hygroton 50mg; Novo-thalidone Tab 100mg; Novo-thalidone Tab 50mg; Ntp-atenolol/chlorthalidone; Tenoretic; Tenoretic 100/25mg Tab; Tenoretic 50/25mg Tab; Teva-atenolol/chlorthalidone; Thalitone; Uridon Tab 100mg; Uridon Tab 50mg

>  <SECONDARY_ACCESSION_NUMBERS>  (1) 
APRD00127

>  <SMILES>  (1) 
NS(=O)(=O)C1=C(Cl)C=CC(=C1)C1(O)NC(=O)C2=CC=CC=C12

>  <SYNONYMS>  (1) 
Chlorphthalidolone; Chlortalidone; Phthalamodine; Phthalamudine

$$$$
