196
     RDKit          2D

 34 36  0  0  0  0  0  0  0  0999 V2000
    1.6500   -0.2897    0.0000 F   0  0  0  0  0  0  0  0  0  0  0  0
    3.0790   -2.7647    0.0000 F   0  0  0  0  0  0  0  0  0  0  0  0
    2.2540    0.5353    0.0000 O   0  0  0  0  0  0  0  0  0  0  0  0
    3.7934    1.7728    0.0000 N   0  0  0  0  0  0  0  0  0  0  0  0
    4.6184    0.1228    0.0000 N   0  0  0  0  0  0  0  0  0  0  0  0
    4.5471    1.4371    0.0000 N   0  0  0  0  0  0  0  0  0  0  0  0
    5.3721    0.4583    0.0000 N   0  0  0  0  0  0  0  0  0  0  0  0
    4.6867    2.7647    0.0000 N   0  0  0  0  0  0  0  0  0  0  0  0
    5.5117   -0.8693    0.0000 N   0  0  0  0  0  0  0  0  0  0  0  0
    3.0790    0.5353    0.0000 C   0  0  0  0  0  0  0  0  0  0  0  0
    3.0790    1.3603    0.0000 C   0  0  0  0  0  0  0  0  0  0  0  0
    3.9040    0.5353    0.0000 C   0  0  0  0  0  0  0  0  0  0  0  0
    3.0790   -0.2897    0.0000 C   0  0  0  0  0  0  0  0  0  0  0  0
    2.3644   -0.7022    0.0000 C   0  0  0  0  0  0  0  0  0  0  0  0
    3.7934   -0.7022    0.0000 C   0  0  0  0  0  0  0  0  0  0  0  0
    2.3644   -1.5272    0.0000 C   0  0  0  0  0  0  0  0  0  0  0  0
    3.7934   -1.5272    0.0000 C   0  0  0  0  0  0  0  0  0  0  0  0
    3.8796    2.5932    0.0000 C   0  0  0  0  0  0  0  0  0  0  0  0
    4.7046   -0.6977    0.0000 C   0  0  0  0  0  0  0  0  0  0  0  0
    3.0790   -1.9397    0.0000 C   0  0  0  0  0  0  0  0  0  0  0  0
    5.0992    2.0503    0.0000 C   0  0  0  0  0  0  0  0  0  0  0  0
    5.9242   -0.1548    0.0000 C   0  0  0  0  0  0  0  0  0  0  0  0
    0.0000    0.0000    0.0000 H   0  0  0  0  0  0  0  0  0  0  0  0
    0.0000    0.0000    0.0000 H   0  0  0  0  0  0  0  0  0  0  0  0
    0.0000    0.0000    0.0000 H   0  0  0  0  0  0  0  0  0  0  0  0
    0.0000    0.0000    0.0000 H   0  0  0  0  0  0  0  0  0  0  0  0
    0.0000    0.0000    0.0000 H   0  0  0  0  0  0  0  0  0  0  0  0
    0.0000    0.0000    0.0000 H   0  0  0  0  0  0  0  0  0  0  0  0
    0.0000    0.0000    0.0000 H   0  0  0  0  0  0  0  0  0  0  0  0
    0.0000    0.0000    0.0000 H   0  0  0  0  0  0  0  0  0  0  0  0
    0.0000    0.0000    0.0000 H   0  0  0  0  0  0  0  0  0  0  0  0
    0.0000    0.0000    0.0000 H   0  0  0  0  0  0  0  0  0  0  0  0
    0.0000    0.0000    0.0000 H   0  0  0  0  0  0  0  0  0  0  0  0
    0.0000    0.0000    0.0000 H   0  0  0  0  0  0  0  0  0  0  0  0
  1 14  1  0
  2 20  1  0
  3 10  1  0
  4  6  1  0
  4 11  1  0
  4 18  1  0
  5  7  1  0
  5 12  1  0
  5 19  1  0
  6 21  2  0
  7 22  2  0
  8 18  2  0
  8 21  1  0
  9 19  2  0
  9 22  1  0
 10 11  1  0
 10 12  1  0
 10 13  1  0
 13 14  2  0
 13 15  1  0
 14 16  1  0
 15 17  2  0
 16 20  2  0
 17 20  1  0
  3 23  1  0
 11 24  1  0
 11 25  1  0
 12 26  1  0
 12 27  1  0
 15 28  1  0
 16 29  1  0
 17 30  1  0
 18 31  1  0
 19 32  1  0
 21 33  1  0
 22 34  1  0
M  END
>  <ALOGPS_LOGP>  (1) 
0.58

>  <ALOGPS_LOGS>  (1) 
-2.34

>  <ALOGPS_SOLUBILITY>  (1) 
1.39e+00 g/l

>  <DATABASE_ID>  (1) 
DB00196

>  <DATABASE_NAME>  (1) 
drugbank

>  <DRUGBANK_ID>  (1) 
DB00196

>  <DRUG_GROUPS>  (1) 
approved

>  <EXACT_MASS>  (1) 
306.104065446

>  <FORMULA>  (1) 
C13H12F2N6O

>  <GENERIC_NAME>  (1) 
Fluconazole

>  <INCHI_IDENTIFIER>  (1) 
InChI=1S/C13H12F2N6O/c14-10-1-2-11(12(15)3-10)13(22,4-20-8-16-6-18-20)5-21-9-17-7-19-21/h1-3,6-9,22H,4-5H2

>  <INCHI_KEY>  (1) 
RFHAOTPXVQNOHP-UHFFFAOYSA-N

>  <INTERNATIONAL_BRANDS>  (1) 
Elazor; Flucazol; Flucostat; Flunizol; Pritenzol; Trican; Triflucan

>  <JCHEM_ACCEPTOR_COUNT>  (1) 
5

>  <JCHEM_AVERAGE_POLARIZABILITY>  (1) 
26.521181986617826

>  <JCHEM_BIOAVAILABILITY>  (1) 
1

>  <JCHEM_DONOR_COUNT>  (1) 
1

>  <JCHEM_FORMAL_CHARGE>  (1) 
0

>  <JCHEM_GHOSE_FILTER>  (1) 
1

>  <JCHEM_IUPAC>  (1) 
2-(2,4-difluorophenyl)-1,3-bis(1H-1,2,4-triazol-1-yl)propan-2-ol

>  <JCHEM_LOGP>  (1) 
0.5609582823333339

>  <JCHEM_MDDR_LIKE_RULE>  (1) 
0

>  <JCHEM_NUMBER_OF_RINGS>  (1) 
3

>  <JCHEM_PHYSIOLOGICAL_CHARGE>  (1) 
0

>  <JCHEM_PKA_STRONGEST_ACIDIC>  (1) 
12.707208218459204

>  <JCHEM_PKA_STRONGEST_BASIC>  (1) 
2.563235647156804

>  <JCHEM_POLAR_SURFACE_AREA>  (1) 
81.65

>  <JCHEM_REFRACTIVITY>  (1) 
97.1995

>  <JCHEM_ROTATABLE_BOND_COUNT>  (1) 
5

>  <JCHEM_RULE_OF_FIVE>  (1) 
1

>  <JCHEM_TRADITIONAL_IUPAC>  (1) 
fluconazole

>  <JCHEM_VEBER_RULE>  (1) 
0

>  <MOLECULAR_WEIGHT>  (1) 
306.2708

>  <PRODUCTS>  (1) 
Act Fluconazole; Apo-fluconazole; Apo-fluconazole-150; Bio-fluconazole; Canesoral; Canesoral Combi-pak; Clotrimaderm-fluconazole Combi-pack; Clotrimazole-fluconazole Combi-pack; Co Fluconazole-150; Diflucan; Diflucan Inj 2mg/ml; Diflucan One; Diflucan Pws 50mg/5ml; Diflucan Tab 100mg; Diflucan Tab 50mg; Dom-fluconazole; Fluconazole; Fluconazole 150; Fluconazole In Sodium Chloride Injection USP; Fluconazole Injection; Fluconazole Injection Sdz; Fluconazole Omega; Fluconazole in Dextrose; Fluconazole in Sodium Chloride; Fluconazole-150; Jamp-fluconazole; Mar-fluconazole-150; Monicure; Monicure Combo; Mylan-fluconazole; Novo-fluconazole; Novo-fluconazole-150; Nu-fluconazole-150; PHL-fluconazole; PMS-fluconazole; PMS-fluconazole-150; Priva-fluconazole; Pro-fluconazole; Riva-fluconazole; Taro-fluconazole; Teva-fluconazole

>  <SECONDARY_ACCESSION_NUMBERS>  (1) 
APRD00327

>  <SMILES>  (1) 
OC(CN1C=NC=N1)(CN1C=NC=N1)C1=C(F)C=C(F)C=C1

$$$$
