229
     RDKit          2D

 57 60  0  0  1  0  0  0  0  0999 V2000
    7.1740   -1.1463    0.0000 S   0  0  0  0  0  0  0  0  0  0  0  0
    5.0305    0.0912    0.0000 S   0  0  0  0  0  0  0  0  0  0  0  0
   12.8123   -1.5552    0.0000 S   0  0  0  0  0  0  0  0  0  0  0  0
    9.3025    0.6792    0.0000 O   0  0  0  0  0  0  0  0  0  0  0  0
    6.4596    1.7413    0.0000 O   0  0  0  0  0  0  0  0  0  0  0  0
    7.8885    1.7413    0.0000 O   0  0  0  0  0  0  0  0  0  0  0  0
   10.3150   -0.3134    0.0000 O   0  0  0  0  0  0  0  0  0  0  0  0
    7.8885    0.0912    0.0000 N   0  0  0  0  0  0  0  0  0  0  0  0
    9.3025   -1.3218    0.0000 N   0  0  0  0  0  0  0  0  0  0  0  0
    3.5623    0.1682    0.0000 N   0  0  0  0  0  0  0  0  0  0  0  0
    2.4347   -1.7008    0.0000 N   0  0  0  0  0  0  0  0  0  0  0  0
   11.7766   -0.7130    0.0000 N   0  0  0  0  0  0  0  0  0  0  0  0
    4.2299    1.3242    0.0000 N   0  0  0  0  0  0  0  0  0  0  0  0
    3.0103    0.7813    0.0000 N   0  0  0  0  0  0  0  0  0  0  0  0
    3.4228    1.4958    0.0000 N   0  0  0  0  0  0  0  0  0  0  0  0
   13.1209   -0.1177    0.0000 N   0  0  0  0  0  0  0  0  0  0  0  0
    7.8885   -0.7338    0.0000 C   0  0  0  0  0  0  0  0  0  0  0  0
    8.7204   -0.7372    0.0000 C   0  0  0  0  0  0  0  0  0  0  0  0
    8.7204    0.0946    0.0000 C   0  0  0  0  0  0  0  0  0  0  0  0
    7.1740    0.5038    0.0000 C   0  0  0  0  0  0  0  0  0  0  0  0
    6.4596    0.0912    0.0000 C   0  0  0  0  0  0  0  0  0  0  0  0
    6.4596   -0.7338    0.0000 C   0  0  0  0  0  0  0  0  0  0  0  0
    5.7450    0.5038    0.0000 C   0  0  0  0  0  0  0  0  0  0  0  0
    7.1740    1.3288    0.0000 C   0  0  0  0  0  0  0  0  0  0  0  0
   10.0999   -1.1099    0.0000 C   0  0  0  0  0  0  0  0  0  0  0  0
   10.6820   -1.6944    0.0000 C   0  0  0  0  0  0  0  0  0  0  0  0
   11.4794   -1.4826    0.0000 C   0  0  0  0  0  0  0  0  0  0  0  0
    4.3161    0.5038    0.0000 C   0  0  0  0  0  0  0  0  0  0  0  0
    3.3908   -0.6388    0.0000 C   0  0  0  0  0  0  0  0  0  0  0  0
    2.6062   -0.8937    0.0000 C   0  0  0  0  0  0  0  0  0  0  0  0
   12.1195   -2.0031    0.0000 C   0  0  0  0  0  0  0  0  0  0  0  0
   12.6004   -0.7579    0.0000 C   0  0  0  0  0  0  0  0  0  0  0  0
    1.6500   -1.9557    0.0000 C   0  0  0  0  0  0  0  0  0  0  0  0
    3.0478   -2.2528    0.0000 C   0  0  0  0  0  0  0  0  0  0  0  0
    0.0000    0.0000    0.0000 H   0  0  0  0  0  0  0  0  0  0  0  0
    0.0000    0.0000    0.0000 H   0  0  0  0  0  0  0  0  0  0  0  0
    0.0000    0.0000    0.0000 H   0  0  0  0  0  0  0  0  0  0  0  0
    0.0000    0.0000    0.0000 H   0  0  0  0  0  0  0  0  0  0  0  0
    0.0000    0.0000    0.0000 H   0  0  0  0  0  0  0  0  0  0  0  0
    0.0000    0.0000    0.0000 H   0  0  0  0  0  0  0  0  0  0  0  0
    0.0000    0.0000    0.0000 H   0  0  0  0  0  0  0  0  0  0  0  0
    0.0000    0.0000    0.0000 H   0  0  0  0  0  0  0  0  0  0  0  0
    0.0000    0.0000    0.0000 H   0  0  0  0  0  0  0  0  0  0  0  0
    0.0000    0.0000    0.0000 H   0  0  0  0  0  0  0  0  0  0  0  0
    0.0000    0.0000    0.0000 H   0  0  0  0  0  0  0  0  0  0  0  0
    0.0000    0.0000    0.0000 H   0  0  0  0  0  0  0  0  0  0  0  0
    0.0000    0.0000    0.0000 H   0  0  0  0  0  0  0  0  0  0  0  0
    0.0000    0.0000    0.0000 H   0  0  0  0  0  0  0  0  0  0  0  0
    0.0000    0.0000    0.0000 H   0  0  0  0  0  0  0  0  0  0  0  0
    0.0000    0.0000    0.0000 H   0  0  0  0  0  0  0  0  0  0  0  0
    0.0000    0.0000    0.0000 H   0  0  0  0  0  0  0  0  0  0  0  0
    0.0000    0.0000    0.0000 H   0  0  0  0  0  0  0  0  0  0  0  0
    0.0000    0.0000    0.0000 H   0  0  0  0  0  0  0  0  0  0  0  0
    0.0000    0.0000    0.0000 H   0  0  0  0  0  0  0  0  0  0  0  0
    0.0000    0.0000    0.0000 H   0  0  0  0  0  0  0  0  0  0  0  0
    0.0000    0.0000    0.0000 H   0  0  0  0  0  0  0  0  0  0  0  0
    0.0000    0.0000    0.0000 H   0  0  0  0  0  0  0  0  0  0  0  0
  1 17  1  0
  1 22  1  0
  2 23  1  0
  2 28  1  0
  3 31  1  0
  3 32  1  0
  4 19  2  0
  5 24  1  0
  6 24  2  0
  7 25  2  0
  8 17  1  0
  8 19  1  0
  8 20  1  0
 18  9  1  6
  9 25  1  0
 10 14  1  0
 10 28  1  0
 10 29  1  0
 11 30  1  0
 11 33  1  0
 11 34  1  0
 12 27  1  0
 12 32  2  0
 13 15  1  0
 13 28  2  0
 14 15  2  0
 16 32  1  0
 17 18  1  0
 18 19  1  0
 20 21  2  0
 20 24  1  0
 21 22  1  0
 21 23  1  0
 25 26  1  0
 26 27  1  0
 27 31  2  0
 29 30  1  0
  5 35  1  0
  9 36  1  0
 16 37  1  0
 16 38  1  0
 17 39  1  6
 18 40  1  0
 22 41  1  0
 22 42  1  0
 23 43  1  0
 23 44  1  0
 26 45  1  0
 26 46  1  0
 29 47  1  0
 29 48  1  0
 30 49  1  0
 30 50  1  0
 31 51  1  0
 33 52  1  0
 33 53  1  0
 33 54  1  0
 34 55  1  0
 34 56  1  0
 34 57  1  0
M  END
>  <ALOGPS_LOGP>  (1) 
-0.33

>  <ALOGPS_LOGS>  (1) 
-2.61

>  <ALOGPS_SOLUBILITY>  (1) 
1.29e+00 g/l

>  <DATABASE_ID>  (1) 
DB00229

>  <DATABASE_NAME>  (1) 
drugbank

>  <DRUGBANK_ID>  (1) 
DB00229

>  <DRUG_GROUPS>  (1) 
approved; investigational

>  <EXACT_MASS>  (1) 
525.103512339

>  <FORMULA>  (1) 
C18H23N9O4S3

>  <GENERIC_NAME>  (1) 
Cefotiam

>  <INCHI_IDENTIFIER>  (1) 
InChI=1S/C18H23N9O4S3/c1-25(2)3-4-26-18(22-23-24-26)34-7-9-6-32-15-12(14(29)27(15)13(9)16(30)31)21-11(28)5-10-8-33-17(19)20-10/h8,12,15H,3-7H2,1-2H3,(H2,19,20)(H,21,28)(H,30,31)/t12-,15-/m1/s1

>  <INCHI_KEY>  (1) 
QYQDKDWGWDOFFU-IUODEOHRSA-N

>  <INTERNATIONAL_BRANDS>  (1) 
Ceradon; Pansporin

>  <JCHEM_ACCEPTOR_COUNT>  (1) 
10

>  <JCHEM_AVERAGE_POLARIZABILITY>  (1) 
49.8683182512362

>  <JCHEM_BIOAVAILABILITY>  (1) 
1

>  <JCHEM_DONOR_COUNT>  (1) 
3

>  <JCHEM_FORMAL_CHARGE>  (1) 
0

>  <JCHEM_GHOSE_FILTER>  (1) 
0

>  <JCHEM_IUPAC>  (1) 
(6R,7R)-7-[2-(2-amino-1,3-thiazol-4-yl)acetamido]-3-[({1-[2-(dimethylamino)ethyl]-1H-1,2,3,4-tetrazol-5-yl}sulfanyl)methyl]-8-oxo-5-thia-1-azabicyclo[4.2.0]oct-2-ene-2-carboxylic acid

>  <JCHEM_LOGP>  (1) 
-3.0857435970023865

>  <JCHEM_MDDR_LIKE_RULE>  (1) 
1

>  <JCHEM_NUMBER_OF_RINGS>  (1) 
4

>  <JCHEM_PHYSIOLOGICAL_CHARGE>  (1) 
0

>  <JCHEM_PKA>  (1) 
11.261707912715334

>  <JCHEM_PKA_STRONGEST_ACIDIC>  (1) 
2.794902086438576

>  <JCHEM_PKA_STRONGEST_BASIC>  (1) 
8.363572270472858

>  <JCHEM_POLAR_SURFACE_AREA>  (1) 
172.46

>  <JCHEM_REFRACTIVITY>  (1) 
142.33649999999994

>  <JCHEM_ROTATABLE_BOND_COUNT>  (1) 
10

>  <JCHEM_RULE_OF_FIVE>  (1) 
0

>  <JCHEM_TRADITIONAL_IUPAC>  (1) 
cefotiam

>  <JCHEM_VEBER_RULE>  (1) 
0

>  <MOLECULAR_WEIGHT>  (1) 
525.628

>  <SALTS>  (1) 
Cefotiam hydrochloride

>  <SECONDARY_ACCESSION_NUMBERS>  (1) 
APRD00855

>  <SMILES>  (1) 
[H][C@]12SCC(CSC3=NN=NN3CCN(C)C)=C(N1C(=O)[C@H]2NC(=O)CC1=CSC(N)=N1)C(O)=O

>  <SYNONYMS>  (1) 
Cefotiamum; CTM

$$$$
