341
     RDKit          2D

 52 54  0  0  1  0  0  0  0  0999 V2000
    1.6500   -4.1746    0.0000 Cl  0  0  0  0  0  0  0  0  0  0  0  0
    5.2224    2.0130    0.0000 O   0  0  0  0  0  0  0  0  0  0  0  0
    6.6515    3.6631    0.0000 O   0  0  0  0  0  0  0  0  0  0  0  0
    5.2224    3.6631    0.0000 O   0  0  0  0  0  0  0  0  0  0  0  0
    4.5080   -1.6995    0.0000 N   0  0  0  0  0  0  0  0  0  0  0  0
    4.5080   -0.0495    0.0000 N   0  0  0  0  0  0  0  0  0  0  0  0
    5.2224   -1.2870    0.0000 C   0  0  0  0  0  0  0  0  0  0  0  0
    3.7935   -1.2870    0.0000 C   0  0  0  0  0  0  0  0  0  0  0  0
    5.2224   -0.4620    0.0000 C   0  0  0  0  0  0  0  0  0  0  0  0
    3.7935   -0.4620    0.0000 C   0  0  0  0  0  0  0  0  0  0  0  0
    4.5080   -2.5246    0.0000 C   0  0  0  0  0  0  0  0  0  0  0  0
    4.5080    0.7755    0.0000 C   0  0  0  0  0  0  0  0  0  0  0  0
    3.7935   -2.9371    0.0000 C   0  0  0  0  0  0  0  0  0  0  0  0
    5.2224   -2.9371    0.0000 C   0  0  0  0  0  0  0  0  0  0  0  0
    5.2224    1.1880    0.0000 C   0  0  0  0  0  0  0  0  0  0  0  0
    3.7935   -3.7621    0.0000 C   0  0  0  0  0  0  0  0  0  0  0  0
    3.0791   -2.5246    0.0000 C   0  0  0  0  0  0  0  0  0  0  0  0
    5.9370   -2.5246    0.0000 C   0  0  0  0  0  0  0  0  0  0  0  0
    5.2224   -3.7621    0.0000 C   0  0  0  0  0  0  0  0  0  0  0  0
    3.0791   -4.1746    0.0000 C   0  0  0  0  0  0  0  0  0  0  0  0
    2.3645   -2.9371    0.0000 C   0  0  0  0  0  0  0  0  0  0  0  0
    6.6515   -2.9371    0.0000 C   0  0  0  0  0  0  0  0  0  0  0  0
    5.9370   -4.1746    0.0000 C   0  0  0  0  0  0  0  0  0  0  0  0
    2.3645   -3.7621    0.0000 C   0  0  0  0  0  0  0  0  0  0  0  0
    6.6515   -3.7621    0.0000 C   0  0  0  0  0  0  0  0  0  0  0  0
    5.9370    2.4256    0.0000 C   0  0  0  0  0  0  0  0  0  0  0  0
    5.9370    3.2506    0.0000 C   0  0  0  0  0  0  0  0  0  0  0  0
    0.0000    0.0000    0.0000 H   0  0  0  0  0  0  0  0  0  0  0  0
    0.0000    0.0000    0.0000 H   0  0  0  0  0  0  0  0  0  0  0  0
    0.0000    0.0000    0.0000 H   0  0  0  0  0  0  0  0  0  0  0  0
    0.0000    0.0000    0.0000 H   0  0  0  0  0  0  0  0  0  0  0  0
    0.0000    0.0000    0.0000 H   0  0  0  0  0  0  0  0  0  0  0  0
    0.0000    0.0000    0.0000 H   0  0  0  0  0  0  0  0  0  0  0  0
    0.0000    0.0000    0.0000 H   0  0  0  0  0  0  0  0  0  0  0  0
    0.0000    0.0000    0.0000 H   0  0  0  0  0  0  0  0  0  0  0  0
    0.0000    0.0000    0.0000 H   0  0  0  0  0  0  0  0  0  0  0  0
    0.0000    0.0000    0.0000 H   0  0  0  0  0  0  0  0  0  0  0  0
    0.0000    0.0000    0.0000 H   0  0  0  0  0  0  0  0  0  0  0  0
    0.0000    0.0000    0.0000 H   0  0  0  0  0  0  0  0  0  0  0  0
    0.0000    0.0000    0.0000 H   0  0  0  0  0  0  0  0  0  0  0  0
    0.0000    0.0000    0.0000 H   0  0  0  0  0  0  0  0  0  0  0  0
    0.0000    0.0000    0.0000 H   0  0  0  0  0  0  0  0  0  0  0  0
    0.0000    0.0000    0.0000 H   0  0  0  0  0  0  0  0  0  0  0  0
    0.0000    0.0000    0.0000 H   0  0  0  0  0  0  0  0  0  0  0  0
    0.0000    0.0000    0.0000 H   0  0  0  0  0  0  0  0  0  0  0  0
    0.0000    0.0000    0.0000 H   0  0  0  0  0  0  0  0  0  0  0  0
    0.0000    0.0000    0.0000 H   0  0  0  0  0  0  0  0  0  0  0  0
    0.0000    0.0000    0.0000 H   0  0  0  0  0  0  0  0  0  0  0  0
    0.0000    0.0000    0.0000 H   0  0  0  0  0  0  0  0  0  0  0  0
    0.0000    0.0000    0.0000 H   0  0  0  0  0  0  0  0  0  0  0  0
    0.0000    0.0000    0.0000 H   0  0  0  0  0  0  0  0  0  0  0  0
    0.0000    0.0000    0.0000 H   0  0  0  0  0  0  0  0  0  0  0  0
  1 24  1  0
  2 15  1  0
  2 26  1  0
  3 27  1  0
  4 27  2  0
  5  7  1  0
  5  8  1  0
  5 11  1  0
  6  9  1  0
  6 10  1  0
  6 12  1  0
  7  9  1  0
  8 10  1  0
 11 13  1  0
 11 14  1  0
 12 15  1  0
 13 16  2  0
 13 17  1  0
 14 18  2  0
 14 19  1  0
 16 20  1  0
 17 21  2  0
 18 22  1  0
 19 23  2  0
 20 24  2  0
 21 24  1  0
 22 25  2  0
 23 25  1  0
 26 27  1  0
  3 28  1  0
  7 29  1  0
  7 30  1  0
  8 31  1  0
  8 32  1  0
  9 33  1  0
  9 34  1  0
 10 35  1  0
 10 36  1  0
 11 37  1  0
 12 38  1  0
 12 39  1  0
 15 40  1  0
 15 41  1  0
 16 42  1  0
 17 43  1  0
 18 44  1  0
 19 45  1  0
 20 46  1  0
 21 47  1  0
 22 48  1  0
 23 49  1  0
 25 50  1  0
 26 51  1  0
 26 52  1  0
M  END
>  <ALOGPS_LOGP>  (1) 
2.98

>  <ALOGPS_LOGS>  (1) 
-3.77

>  <ALOGPS_SOLUBILITY>  (1) 
6.58e-02 g/l

>  <DATABASE_ID>  (1) 
DB00341

>  <DATABASE_NAME>  (1) 
drugbank

>  <DRUGBANK_ID>  (1) 
DB00341

>  <DRUG_GROUPS>  (1) 
approved

>  <EXACT_MASS>  (1) 
388.155370383

>  <FORMULA>  (1) 
C21H25ClN2O3

>  <GENERIC_NAME>  (1) 
Cetirizine

>  <INCHI_IDENTIFIER>  (1) 
InChI=1S/C21H25ClN2O3/c22-19-8-6-18(7-9-19)21(17-4-2-1-3-5-17)24-12-10-23(11-13-24)14-15-27-16-20(25)26/h1-9,21H,10-16H2,(H,25,26)

>  <INCHI_KEY>  (1) 
ZKLPARSLTMPFCP-UHFFFAOYSA-N

>  <INTERNATIONAL_BRANDS>  (1) 
Alerlisin; Cetryn; Formistin; Hitrizin; Virlix; Zirtek; Zyrlex

>  <JCHEM_ACCEPTOR_COUNT>  (1) 
5

>  <JCHEM_AVERAGE_POLARIZABILITY>  (1) 
41.878150049336554

>  <JCHEM_BIOAVAILABILITY>  (1) 
1

>  <JCHEM_DONOR_COUNT>  (1) 
1

>  <JCHEM_FORMAL_CHARGE>  (1) 
0

>  <JCHEM_GHOSE_FILTER>  (1) 
1

>  <JCHEM_IUPAC>  (1) 
2-(2-{4-[(4-chlorophenyl)(phenyl)methyl]piperazin-1-yl}ethoxy)acetic acid

>  <JCHEM_LOGP>  (1) 
0.8598093028281057

>  <JCHEM_MDDR_LIKE_RULE>  (1) 
1

>  <JCHEM_NUMBER_OF_RINGS>  (1) 
3

>  <JCHEM_PHYSIOLOGICAL_CHARGE>  (1) 
0

>  <JCHEM_PKA_STRONGEST_ACIDIC>  (1) 
3.596630966769094

>  <JCHEM_PKA_STRONGEST_BASIC>  (1) 
7.789172195841928

>  <JCHEM_POLAR_SURFACE_AREA>  (1) 
53.010000000000005

>  <JCHEM_REFRACTIVITY>  (1) 
106.86650000000003

>  <JCHEM_ROTATABLE_BOND_COUNT>  (1) 
8

>  <JCHEM_RULE_OF_FIVE>  (1) 
1

>  <JCHEM_TRADITIONAL_IUPAC>  (1) 
cetirizine

>  <JCHEM_VEBER_RULE>  (1) 
0

>  <MOLECULAR_WEIGHT>  (1) 
388.888

>  <PRODUCTS>  (1) 
12 Hour Allergy D; 24 Hour Allergy; 24 Hour Allergy Lil Drug Store Products; 24-Hour All Day Allergy; 7 Select All Day Allergy; 7 Select Childrens Allergy Relief; All Day Allergy; All Day Allergy 24 hour; All Day Allergy Antihistamine; All Day Allergy D; All Day Allergy Relief; All Day Allergy Relief 24 HOUR; All Day Allergy Relief 24 Hour; All Day Allergy Relief 24 hour; All Day Allergy-D; All day Allergy d; Aller-relief; Aller-relief 10mg; Allergy Childrens; Allergy Childrens 24 Hour; Allergy Relief; Allergy Relief 24 hour; Allergy Relief All Day; Allergy Relief Childrens; Allergy Relief D; Allergy Relief Indoor and Outdoor Allergies; Allergy Relief Liquid Gels; Allergy Relief childrens indoor/outdoor; Allergy and Congestion Relief D Original Prescription Strength; Allergy relief-D; Alleroff; Apo-cetirizine; Aptrizine 24-hour All Day Allergy; Basic Care All Day Allergy; Basic Care Childrens All Day Allergy; Being Well Allergy; Berkley and Jensen Allergy Relief; Berkley and Jensen Cetirizine Hydrochloride; Berkley and Jensen Childrens Cetirizine Hydrochloride; Best Choice Childrens Cetirizine; CETIRIZINE HYDROLORIDE Allergy; CVS Pharmacy Childrens Allergy Relief; CareOne All Day Allergy; CareOne All Day Allergy Childrens; CareOne All Day Allergy D; CareOne Allergy Relief; CareOne Allergy Relief D; CareOne Childrens All Day Allergy; Careone All Day Allergy; Careone Childrens Allergy Relief; Cetiri D; Cetirizine; Cetirizine HCL 10 mg All Day Allergy Relief; Cetirizine HCl; Cetirizine HCl and Pseudoephedrine HCl ER; Cetirizine Hydrochloride; Cetirizine Hydrochloride (Allergy Relief); Cetirizine Hydrochloride (Allergy); Cetirizine Hydrochloride (Hives Relief); Cetirizine Hydrochloride HIVES; Cetirizine Hydrochloride Hives Relief; Cetirizine Hydrochloride and Pseudoephedrine Hydrochloride; Cetirizine hydrochloride; Cetrizine Hydrochloride; Childrens 24 Hour Allergy; Childrens All Day Allergy; Childrens All Day Allergy (Leader); Childrens All Day Allergy Relief; Childrens Allergy; Childrens Allergy Relief; Childrens Cetirizine Hydrochloride; Childrens Cetirizine Hydrochloride Allergy; Childrens Cetirizine Hydrochloride Hives Relief; Childrens Cetirizine Hydrochloride Sugar Free Grape; Childrens Cetirzine; Childrens Dye Free Wal Zyr; Childrens Wal Zyr; Childrens Wal Zyr 24 Hour Allergy; Childrens Wal Zyr Allergy; Childrens Zyrtec; Childrens Zyrtec Allergy; Childrens all day allergy; Core Values Allergy Relief; Cvs Childrens Allergy Relief; Dg Health All Day Allergy; Dom-cetirizine; Dye Free Childrens Cetirizine Hydrocholride; Dye Free Wal Zyr; Equaline All Day Allergy; Equaline All Day Allergy D; Equaline all day allergy; Equaline childrens all day allergy; Equate Allergy Relief; Equate Allergy Relief D; Equate Childrens Allergy Relief; Exchange Select Allergy Relief; Exchange select all day allergy; Extra Strength Allergy Relief; Family Wellness Childrens All Day Allergy; Family Wellness childrens All Day Allergy; Fulton Street Market Cetirizine Hydrochloride; Good Neighbor Pharmacy All Day Allergy; Good Neighbor Pharmacy All Day Allergy D; Good Neighbor Pharmacy Allergy childrens all day; Good Neighbor Pharmacy Childrens All Day Allergy; Good Sense All Day Allergy D; Good Sense Childrens All Day Allergy; Good Sense all day allergy; H-E-B Allergy Relief; Harmon Face Values Allergy Relief; Harris Teeter All Day Allergy; Harris Teeter All Day Allergy Childrens; Harris Teeter All Day Allergy D; Harris Teeter Childrens All Day Allergy; Health Mart Allergy Complete Childrens; Health Mart Allergy Complete D; Health Mart Childrens all day allergy; Health Mart Pharmacy Childrens Cetirizine Hydrochloride; Health Mart childrens all day allergy; HealthMart Childrens Cetirizine; Healthy Accents Cetirizine Hydrochloride; Healthy Accents Cetirizine-D; Healthy Accents Childrens Allergy; Healthy Accents allergy relief; Heb Allergy Relief; Humana Pharmacy All Day Allergy; Indoor/Outdoor ALLERGY RELIEF Softgels; Ipg-cetirizine; Jamp-cetirizine; Kirkland Signature Aller Tec Allergy; Kirkland Signature Aller Tec D; Kirkland Signature Childrens Aller Tec; Kirklands Childrens Aller Tec; Leader All Day Allergy; Leader Allergy D 12; Leader Childrens All Day Allergy; Leader Childrens Allergy Relief; Leader Childrens all day allergy; Mar-cetirizine; Members mark cetirizine; Novo-cetirizine; Our Family Childrens Cetirizine; PMS-cetirizine; Pedia Care Childrens 24 Hour Allergy; Preferred Plus All Day Allergy; Premier Value Childrens Cetirizine; Priva-cetirizine; Quality Choice Cetirizine Hydrochloride; Quality Choice Childrens Allergy Relief; Reactine; Reactine 20mg Tablet; Reactine Allergy Liquid Gels; Reactine Chewable Tablets 10 mg; Reactine Chewable Tablets 5 mg; Reactine Complete; Reactine Fast Melt Junior; Reactine Rapid Dissolve; Reactine Tab 10mg; Rexall All Day Allergy Relief; Rexall All Day Allergy Relief Childrens; Rexall Allergy Relief; Rhinaris Relief; Rite Aid Childrens Allergy Relief; Rite Aid childrens allergy relief; Rx Act all day allergy relief; Safeway Children Allergy Relief; ShopRite Allergy; ShopRite Allergy D 12; ShopRite Childrens Allergy; Signature Care Allergy Relief; Signature Care Allergy Relief D; Signature Care Childrens Allergy Relief; Simply Right Cetirizine Hydrochloride; Simply Right Childrens Cetirizine; Smart Sense All Day Allergy D; Smart Sense Allergy Relief; Smart Sense Allergy Relief Childrens; Smart Sense Allergy Relief D; Smart Sense Childrens Allergy; Smart Sense Childrens Cetirizine Hydrochloride; Smart Sense all day allergy; Sound Body All Day Allergy; SunMark All Day Allergy Childrens; SunMark All day allergy; Sunmark All Day Allergy D; Sunmark Childrens All Day Allergy; Sunmark Childrens Cetirizine; Sunmark childrens all day allergy; Target Childrens All Day Allergy Relief Sugar Free Grape; TopCare All Day Allergy; TopCare Childrens All Day Allergy; Topcare All Day Allergy D; Topcare Childrens All Day Allergy; Up and Up All Day Allergy Relief; Up and Up Allergy Plus Congestion Relief D; Up and Up Allergy Relief; Up and Up Childrens All Day Allergy Relief; Up and Up Childrens Allergy Relief; Up and Up Childrens all day allergy relief; Up and Up all day allergy relief d; Up and Up childrens all day allergy relief; Wal Zyr; Wal Zyr Childrens; Wal Zyr D; Wal Zyr D Allergy and Congestion; Wal Zyr all day allergy; Wal-Zyr; Wal-Zyr 24 Hour Allergy; Wal-Zyr All Day Allergy; Wal-Zyr Cetirizine Hydrochloride; Welby Allergy Relief; Western Family Childrens Allergy Relief; ZYRTEC-D Allergy Plus Congestion; Zero Allergy; Zyrtec; Zyrtec - Tab 10mg; Zyrtec Allergy; Zyrtec D Allergy and Congestion; all day Allergy Relief D; childrens Wal-Zyr

>  <SALTS>  (1) 
Cetirizine hydrochloride

>  <SECONDARY_ACCESSION_NUMBERS>  (1) 
APRD00630

>  <SMILES>  (1) 
OC(=O)COCCN1CCN(CC1)C(C1=CC=CC=C1)C1=CC=C(Cl)C=C1

>  <SYNONYMS>  (1) 
Cetirizin; Cetirizina; Cetirizinum

$$$$
