474
     RDKit          2D

 37 37  0  0  1  0  0  0  0  0999 V2000
    4.7291   -0.5487    0.0000 O   0  0  0  0  0  0  0  0  0  0  0  0
    1.8711   -0.5487    0.0000 O   0  0  0  0  0  0  0  0  0  0  0  0
    3.3001   -3.0238    0.0000 O   0  0  0  0  0  0  0  0  0  0  0  0
    4.0145   -1.7862    0.0000 N   0  0  0  0  0  0  0  0  0  0  0  0
    2.5856   -1.7862    0.0000 N   0  0  0  0  0  0  0  0  0  0  0  0
    3.3001   -0.5487    0.0000 C   0  0  0  0  0  0  0  0  0  0  0  0
    3.7126    0.1658    0.0000 C   0  0  0  0  0  0  0  0  0  0  0  0
    2.8876    0.1658    0.0000 C   0  0  0  0  0  0  0  0  0  0  0  0
    4.0145   -0.9612    0.0000 C   0  0  0  0  0  0  0  0  0  0  0  0
    2.5856   -0.9612    0.0000 C   0  0  0  0  0  0  0  0  0  0  0  0
    4.5376    0.1658    0.0000 C   0  0  0  0  0  0  0  0  0  0  0  0
    3.3001   -2.1988    0.0000 C   0  0  0  0  0  0  0  0  0  0  0  0
    2.0625    0.1658    0.0000 C   0  0  0  0  0  0  0  0  0  0  0  0
    3.3001    0.8803    0.0000 C   0  0  0  0  0  0  0  0  0  0  0  0
    4.7291   -2.1988    0.0000 C   0  0  0  0  0  0  0  0  0  0  0  0
    1.6500    0.8803    0.0000 C   0  0  0  0  0  0  0  0  0  0  0  0
    2.8876    1.5948    0.0000 C   0  0  0  0  0  0  0  0  0  0  0  0
    2.4751    2.3092    0.0000 C   0  0  0  0  0  0  0  0  0  0  0  0
    2.8876    3.0238    0.0000 C   0  0  0  0  0  0  0  0  0  0  0  0
    0.0000    0.0000    0.0000 H   0  0  0  0  0  0  0  0  0  0  0  0
    0.0000    0.0000    0.0000 H   0  0  0  0  0  0  0  0  0  0  0  0
    0.0000    0.0000    0.0000 H   0  0  0  0  0  0  0  0  0  0  0  0
    0.0000    0.0000    0.0000 H   0  0  0  0  0  0  0  0  0  0  0  0
    0.0000    0.0000    0.0000 H   0  0  0  0  0  0  0  0  0  0  0  0
    0.0000    0.0000    0.0000 H   0  0  0  0  0  0  0  0  0  0  0  0
    0.0000    0.0000    0.0000 H   0  0  0  0  0  0  0  0  0  0  0  0
    0.0000    0.0000    0.0000 H   0  0  0  0  0  0  0  0  0  0  0  0
    0.0000    0.0000    0.0000 H   0  0  0  0  0  0  0  0  0  0  0  0
    0.0000    0.0000    0.0000 H   0  0  0  0  0  0  0  0  0  0  0  0
    0.0000    0.0000    0.0000 H   0  0  0  0  0  0  0  0  0  0  0  0
    0.0000    0.0000    0.0000 H   0  0  0  0  0  0  0  0  0  0  0  0
    0.0000    0.0000    0.0000 H   0  0  0  0  0  0  0  0  0  0  0  0
    0.0000    0.0000    0.0000 H   0  0  0  0  0  0  0  0  0  0  0  0
    0.0000    0.0000    0.0000 H   0  0  0  0  0  0  0  0  0  0  0  0
    0.0000    0.0000    0.0000 H   0  0  0  0  0  0  0  0  0  0  0  0
    0.0000    0.0000    0.0000 H   0  0  0  0  0  0  0  0  0  0  0  0
    0.0000    0.0000    0.0000 H   0  0  0  0  0  0  0  0  0  0  0  0
  1  9  2  0
  2 10  2  0
  3 12  2  0
  4  9  1  0
  4 12  1  0
  4 15  1  0
  5 10  1  0
  5 12  1  0
  6  7  1  0
  6  8  1  0
  6  9  1  0
  6 10  1  0
  7 11  1  0
  7 14  1  0
  8 13  1  0
 13 16  2  3
 14 17  3  0
 17 18  1  0
 18 19  1  0
  5 20  1  0
  7 21  1  0
  8 22  1  0
  8 23  1  0
 11 24  1  0
 11 25  1  0
 11 26  1  0
 13 27  1  0
 15 28  1  0
 15 29  1  0
 15 30  1  0
 16 31  1  0
 16 32  1  0
 18 33  1  0
 18 34  1  0
 19 35  1  0
 19 36  1  0
 19 37  1  0
M  END
>  <ALOGPS_LOGP>  (1) 
2.43

>  <ALOGPS_LOGS>  (1) 
-3.70

>  <ALOGPS_SOLUBILITY>  (1) 
5.24e-02 g/l

>  <DATABASE_ID>  (1) 
DB00474

>  <DATABASE_NAME>  (1) 
drugbank

>  <DRUGBANK_ID>  (1) 
DB00474

>  <DRUG_GROUPS>  (1) 
approved

>  <EXACT_MASS>  (1) 
262.131742452

>  <FORMULA>  (1) 
C14H18N2O3

>  <GENERIC_NAME>  (1) 
Methohexital

>  <INCHI_IDENTIFIER>  (1) 
InChI=1S/C14H18N2O3/c1-5-7-8-10(3)14(9-6-2)11(17)15-13(19)16(4)12(14)18/h6,10H,2,5,9H2,1,3-4H3,(H,15,17,19)

>  <INCHI_KEY>  (1) 
NZXKDOXHBHYTKP-UHFFFAOYSA-N

>  <INTERNATIONAL_BRANDS>  (1) 
Brevital; Brietal

>  <JCHEM_ACCEPTOR_COUNT>  (1) 
3

>  <JCHEM_AVERAGE_POLARIZABILITY>  (1) 
27.402358268553048

>  <JCHEM_BIOAVAILABILITY>  (1) 
1

>  <JCHEM_DONOR_COUNT>  (1) 
1

>  <JCHEM_FORMAL_CHARGE>  (1) 
0

>  <JCHEM_GHOSE_FILTER>  (1) 
1

>  <JCHEM_IUPAC>  (1) 
5-(hex-3-yn-2-yl)-1-methyl-5-(prop-2-en-1-yl)-1,3-diazinane-2,4,6-trione

>  <JCHEM_LOGP>  (1) 
2.286783320666666

>  <JCHEM_MDDR_LIKE_RULE>  (1) 
0

>  <JCHEM_NUMBER_OF_RINGS>  (1) 
1

>  <JCHEM_PHYSIOLOGICAL_CHARGE>  (1) 
0

>  <JCHEM_PKA_STRONGEST_ACIDIC>  (1) 
8.73130483464523

>  <JCHEM_POLAR_SURFACE_AREA>  (1) 
66.48

>  <JCHEM_REFRACTIVITY>  (1) 
71.5071

>  <JCHEM_ROTATABLE_BOND_COUNT>  (1) 
5

>  <JCHEM_RULE_OF_FIVE>  (1) 
1

>  <JCHEM_TRADITIONAL_IUPAC>  (1) 
methohexital

>  <JCHEM_VEBER_RULE>  (1) 
0

>  <MOLECULAR_WEIGHT>  (1) 
262.3043

>  <PRODUCTS>  (1) 
Brevital Sodium; Brietal Sodium Ampoule 660

>  <SALTS>  (1) 
Methohexital sodium

>  <SECONDARY_ACCESSION_NUMBERS>  (1) 
APRD00058

>  <SMILES>  (1) 
CCC#CC(C)C1(CC=C)C(=O)NC(=O)N(C)C1=O

>  <SYNONYMS>  (1) 
Methohexitone

$$$$
