490
     RDKit          2D

 59 62  0  0  0  0  0  0  0  0999 V2000
    9.0752   -1.7862    0.0000 O   0  0  0  0  0  0  0  0  0  0  0  0
    9.0752    1.0717    0.0000 O   0  0  0  0  0  0  0  0  0  0  0  0
    9.0752   -0.3572    0.0000 N   0  0  0  0  0  0  0  0  0  0  0  0
    5.7751    1.0717    0.0000 N   0  0  0  0  0  0  0  0  0  0  0  0
    4.1251    1.0717    0.0000 N   0  0  0  0  0  0  0  0  0  0  0  0
    2.8876    0.3572    0.0000 N   0  0  0  0  0  0  0  0  0  0  0  0
    2.8876    1.7862    0.0000 N   0  0  0  0  0  0  0  0  0  0  0  0
   10.7252   -0.3572    0.0000 C   0  0  0  0  0  0  0  0  0  0  0  0
   11.2102   -1.0247    0.0000 C   0  0  0  0  0  0  0  0  0  0  0  0
   11.2102    0.3102    0.0000 C   0  0  0  0  0  0  0  0  0  0  0  0
   11.9948   -0.7697    0.0000 C   0  0  0  0  0  0  0  0  0  0  0  0
   11.9948    0.0553    0.0000 C   0  0  0  0  0  0  0  0  0  0  0  0
   10.3127   -1.0717    0.0000 C   0  0  0  0  0  0  0  0  0  0  0  0
   10.3127    0.3572    0.0000 C   0  0  0  0  0  0  0  0  0  0  0  0
    9.4877   -1.0717    0.0000 C   0  0  0  0  0  0  0  0  0  0  0  0
    9.4877    0.3572    0.0000 C   0  0  0  0  0  0  0  0  0  0  0  0
    8.2502   -0.3572    0.0000 C   0  0  0  0  0  0  0  0  0  0  0  0
    7.8377    0.3572    0.0000 C   0  0  0  0  0  0  0  0  0  0  0  0
    7.0127    0.3572    0.0000 C   0  0  0  0  0  0  0  0  0  0  0  0
    6.6001    1.0717    0.0000 C   0  0  0  0  0  0  0  0  0  0  0  0
    5.3626    0.3572    0.0000 C   0  0  0  0  0  0  0  0  0  0  0  0
    5.3626    1.7862    0.0000 C   0  0  0  0  0  0  0  0  0  0  0  0
    4.5376    0.3572    0.0000 C   0  0  0  0  0  0  0  0  0  0  0  0
    4.5376    1.7862    0.0000 C   0  0  0  0  0  0  0  0  0  0  0  0
    3.3001    1.0717    0.0000 C   0  0  0  0  0  0  0  0  0  0  0  0
    2.0625    0.3572    0.0000 C   0  0  0  0  0  0  0  0  0  0  0  0
    2.0625    1.7862    0.0000 C   0  0  0  0  0  0  0  0  0  0  0  0
    1.6500    1.0717    0.0000 C   0  0  0  0  0  0  0  0  0  0  0  0
    0.0000    0.0000    0.0000 H   0  0  0  0  0  0  0  0  0  0  0  0
    0.0000    0.0000    0.0000 H   0  0  0  0  0  0  0  0  0  0  0  0
    0.0000    0.0000    0.0000 H   0  0  0  0  0  0  0  0  0  0  0  0
    0.0000    0.0000    0.0000 H   0  0  0  0  0  0  0  0  0  0  0  0
    0.0000    0.0000    0.0000 H   0  0  0  0  0  0  0  0  0  0  0  0
    0.0000    0.0000    0.0000 H   0  0  0  0  0  0  0  0  0  0  0  0
    0.0000    0.0000    0.0000 H   0  0  0  0  0  0  0  0  0  0  0  0
    0.0000    0.0000    0.0000 H   0  0  0  0  0  0  0  0  0  0  0  0
    0.0000    0.0000    0.0000 H   0  0  0  0  0  0  0  0  0  0  0  0
    0.0000    0.0000    0.0000 H   0  0  0  0  0  0  0  0  0  0  0  0
    0.0000    0.0000    0.0000 H   0  0  0  0  0  0  0  0  0  0  0  0
    0.0000    0.0000    0.0000 H   0  0  0  0  0  0  0  0  0  0  0  0
    0.0000    0.0000    0.0000 H   0  0  0  0  0  0  0  0  0  0  0  0
    0.0000    0.0000    0.0000 H   0  0  0  0  0  0  0  0  0  0  0  0
    0.0000    0.0000    0.0000 H   0  0  0  0  0  0  0  0  0  0  0  0
    0.0000    0.0000    0.0000 H   0  0  0  0  0  0  0  0  0  0  0  0
    0.0000    0.0000    0.0000 H   0  0  0  0  0  0  0  0  0  0  0  0
    0.0000    0.0000    0.0000 H   0  0  0  0  0  0  0  0  0  0  0  0
    0.0000    0.0000    0.0000 H   0  0  0  0  0  0  0  0  0  0  0  0
    0.0000    0.0000    0.0000 H   0  0  0  0  0  0  0  0  0  0  0  0
    0.0000    0.0000    0.0000 H   0  0  0  0  0  0  0  0  0  0  0  0
    0.0000    0.0000    0.0000 H   0  0  0  0  0  0  0  0  0  0  0  0
    0.0000    0.0000    0.0000 H   0  0  0  0  0  0  0  0  0  0  0  0
    0.0000    0.0000    0.0000 H   0  0  0  0  0  0  0  0  0  0  0  0
    0.0000    0.0000    0.0000 H   0  0  0  0  0  0  0  0  0  0  0  0
    0.0000    0.0000    0.0000 H   0  0  0  0  0  0  0  0  0  0  0  0
    0.0000    0.0000    0.0000 H   0  0  0  0  0  0  0  0  0  0  0  0
    0.0000    0.0000    0.0000 H   0  0  0  0  0  0  0  0  0  0  0  0
    0.0000    0.0000    0.0000 H   0  0  0  0  0  0  0  0  0  0  0  0
    0.0000    0.0000    0.0000 H   0  0  0  0  0  0  0  0  0  0  0  0
    0.0000    0.0000    0.0000 H   0  0  0  0  0  0  0  0  0  0  0  0
  1 15  2  0
  2 16  2  0
  3 15  1  0
  3 16  1  0
  3 17  1  0
  4 20  1  0
  4 21  1  0
  4 22  1  0
  5 23  1  0
  5 24  1  0
  5 25  1  0
  6 25  2  0
  6 26  1  0
  7 25  1  0
  7 27  2  0
  8  9  1  0
  8 10  1  0
  8 13  1  0
  8 14  1  0
  9 11  1  0
 10 12  1  0
 11 12  1  0
 13 15  1  0
 14 16  1  0
 17 18  1  0
 18 19  1  0
 19 20  1  0
 21 23  1  0
 22 24  1  0
 26 28  2  0
 27 28  1  0
  9 29  1  0
  9 30  1  0
 10 31  1  0
 10 32  1  0
 11 33  1  0
 11 34  1  0
 12 35  1  0
 12 36  1  0
 13 37  1  0
 13 38  1  0
 14 39  1  0
 14 40  1  0
 17 41  1  0
 17 42  1  0
 18 43  1  0
 18 44  1  0
 19 45  1  0
 19 46  1  0
 20 47  1  0
 20 48  1  0
 21 49  1  0
 21 50  1  0
 22 51  1  0
 22 52  1  0
 23 53  1  0
 23 54  1  0
 24 55  1  0
 24 56  1  0
 26 57  1  0
 27 58  1  0
 28 59  1  0
M  END
>  <ALOGPS_LOGP>  (1) 
1.95

>  <ALOGPS_LOGS>  (1) 
-2.82

>  <ALOGPS_SOLUBILITY>  (1) 
5.88e-01 g/l

>  <DATABASE_ID>  (1) 
DB00490

>  <DATABASE_NAME>  (1) 
drugbank

>  <DRUGBANK_ID>  (1) 
DB00490

>  <DRUG_GROUPS>  (1) 
approved; investigational

>  <EXACT_MASS>  (1) 
385.247775261

>  <FORMULA>  (1) 
C21H31N5O2

>  <GENERIC_NAME>  (1) 
Buspirone

>  <INCHI_IDENTIFIER>  (1) 
InChI=1S/C21H31N5O2/c27-18-16-21(6-1-2-7-21)17-19(28)26(18)11-4-3-10-24-12-14-25(15-13-24)20-22-8-5-9-23-20/h5,8-9H,1-4,6-7,10-17H2

>  <INCHI_KEY>  (1) 
QWCRAEMEVRGPNT-UHFFFAOYSA-N

>  <INTERNATIONAL_BRANDS>  (1) 
Ansial; Anxiron; Anxut; Bespar; Buscalm; Busp; Buspar; Buspon; Dalpas; Epsilat; Pasrin; Spamilan

>  <JCHEM_ACCEPTOR_COUNT>  (1) 
6

>  <JCHEM_AVERAGE_POLARIZABILITY>  (1) 
44.11883665313514

>  <JCHEM_BIOAVAILABILITY>  (1) 
1

>  <JCHEM_DONOR_COUNT>  (1) 
0

>  <JCHEM_FORMAL_CHARGE>  (1) 
0

>  <JCHEM_GHOSE_FILTER>  (1) 
1

>  <JCHEM_IUPAC>  (1) 
8-{4-[4-(pyrimidin-2-yl)piperazin-1-yl]butyl}-8-azaspiro[4.5]decane-7,9-dione

>  <JCHEM_LOGP>  (1) 
1.7767331956666652

>  <JCHEM_MDDR_LIKE_RULE>  (1) 
1

>  <JCHEM_NUMBER_OF_RINGS>  (1) 
4

>  <JCHEM_PHYSIOLOGICAL_CHARGE>  (1) 
1

>  <JCHEM_PKA_STRONGEST_BASIC>  (1) 
7.620561412370418

>  <JCHEM_POLAR_SURFACE_AREA>  (1) 
69.64000000000001

>  <JCHEM_REFRACTIVITY>  (1) 
108.89059999999998

>  <JCHEM_ROTATABLE_BOND_COUNT>  (1) 
6

>  <JCHEM_RULE_OF_FIVE>  (1) 
1

>  <JCHEM_TRADITIONAL_IUPAC>  (1) 
buspirone

>  <JCHEM_VEBER_RULE>  (1) 
0

>  <MOLECULAR_WEIGHT>  (1) 
385.5031

>  <PRODUCTS>  (1) 
Apo-buspirone - Tab 10mg; BUSPIRONE HCl; BusPIRone Hydrochloride; Buspar; Buspar Tab 10mg; Buspirone; Buspirone HCl; Buspirone Hydrochloride; Buspirone hydrochloride; Buspirone-10 - Tab 10mg; Bustab; Co Buspirone; Dom-buspirone; Ftp-buspirone; Linbuspirone; Mylan-buspirone; Nu-buspirone - Tab 10mg; PMS-buspirone; Penta-buspirone; Ratio-buspirone; Riva-buspirone 10 mg; Teva-buspirone; busPIRone HCl

>  <SALTS>  (1) 
Buspirone Hydrochloride

>  <SECONDARY_ACCESSION_NUMBERS>  (1) 
APRD00222

>  <SMILES>  (1) 
O=C1CC2(CCCC2)CC(=O)N1CCCCN1CCN(CC1)C1=NC=CC=N1

>  <SYNONYMS>  (1) 
Buspiron; Buspirona; Buspirone; Buspironum

$$$$
