305
     RDKit          2D

 42 45  0  0  1  0  0  0  0  0999 V2000
    5.8626    0.8985    0.0000 O   0  0  0  0  0  0  0  0  0  0  0  0
    5.0865   -0.8173    0.0000 O   0  0  0  0  0  0  0  0  0  0  0  0
    2.7859    2.3617    0.0000 O   0  0  0  0  0  0  0  0  0  0  0  0
    3.8230   -0.8206    0.0000 O   0  0  0  0  0  0  0  0  0  0  0  0
    6.3910   -1.4007    0.0000 O   0  0  0  0  0  0  0  0  0  0  0  0
    6.4150    2.4816    0.0000 N   0  0  0  0  0  0  0  0  0  0  0  0
    4.5276    1.8684    0.0000 N   0  0  0  0  0  0  0  0  0  0  0  0
    2.1720   -0.4845    0.0000 N   0  0  0  0  0  0  0  0  0  0  0  0
    5.2334   -2.2387    0.0000 N   0  0  0  0  0  0  0  0  0  0  0  0
    5.8626    1.8684    0.0000 C   0  0  0  0  0  0  0  0  0  0  0  0
    5.1951    1.3835    0.0000 C   0  0  0  0  0  0  0  0  0  0  0  0
    5.6076    2.6530    0.0000 C   0  0  0  0  0  0  0  0  0  0  0  0
    4.7826    2.6530    0.0000 C   0  0  0  0  0  0  0  0  0  0  0  0
    4.9396    0.6041    0.0000 C   0  0  0  0  0  0  0  0  0  0  0  0
    3.8654    1.3846    0.0000 C   0  0  0  0  0  0  0  0  0  0  0  0
    4.1195    0.6048    0.0000 C   0  0  0  0  0  0  0  0  0  0  0  0
    5.4234   -0.0642    0.0000 C   0  0  0  0  0  0  0  0  0  0  0  0
    3.0324    1.5744    0.0000 C   0  0  0  0  0  0  0  0  0  0  0  0
    3.5583   -0.0393    0.0000 C   0  0  0  0  0  0  0  0  0  0  0  0
    6.6162    1.2341    0.0000 C   0  0  0  0  0  0  0  0  0  0  0  0
    2.4565    0.9434    0.0000 C   0  0  0  0  0  0  0  0  0  0  0  0
    2.7211    0.1312    0.0000 C   0  0  0  0  0  0  0  0  0  0  0  0
    1.6500    1.1174    0.0000 C   0  0  0  0  0  0  0  0  0  0  0  0
    5.5703   -1.4856    0.0000 C   0  0  0  0  0  0  0  0  0  0  0  0
    0.0000    0.0000    0.0000 H   0  0  0  0  0  0  0  0  0  0  0  0
    0.0000    0.0000    0.0000 H   0  0  0  0  0  0  0  0  0  0  0  0
    0.0000    0.0000    0.0000 H   0  0  0  0  0  0  0  0  0  0  0  0
    0.0000    0.0000    0.0000 H   0  0  0  0  0  0  0  0  0  0  0  0
    0.0000    0.0000    0.0000 H   0  0  0  0  0  0  0  0  0  0  0  0
    0.0000    0.0000    0.0000 H   0  0  0  0  0  0  0  0  0  0  0  0
    0.0000    0.0000    0.0000 H   0  0  0  0  0  0  0  0  0  0  0  0
    0.0000    0.0000    0.0000 H   0  0  0  0  0  0  0  0  0  0  0  0
    0.0000    0.0000    0.0000 H   0  0  0  0  0  0  0  0  0  0  0  0
    0.0000    0.0000    0.0000 H   0  0  0  0  0  0  0  0  0  0  0  0
    0.0000    0.0000    0.0000 H   0  0  0  0  0  0  0  0  0  0  0  0
    0.0000    0.0000    0.0000 H   0  0  0  0  0  0  0  0  0  0  0  0
    0.0000    0.0000    0.0000 H   0  0  0  0  0  0  0  0  0  0  0  0
    0.0000    0.0000    0.0000 H   0  0  0  0  0  0  0  0  0  0  0  0
    0.0000    0.0000    0.0000 H   0  0  0  0  0  0  0  0  0  0  0  0
    0.0000    0.0000    0.0000 H   0  0  0  0  0  0  0  0  0  0  0  0
    0.0000    0.0000    0.0000 H   0  0  0  0  0  0  0  0  0  0  0  0
    0.0000    0.0000    0.0000 H   0  0  0  0  0  0  0  0  0  0  0  0
 11  1  1  1
  1 20  1  0
  2 17  1  0
  2 24  1  0
  3 18  2  0
  4 19  2  0
  5 24  2  0
 10  6  1  0
 12  6  1  0
  7 11  1  0
  7 13  1  0
  7 15  1  0
  8 22  1  0
  9 24  1  0
 10 11  1  0
 10 12  1  0
 11 14  1  0
 12 13  1  0
 14 16  1  0
 14 17  1  6
 15 16  2  0
 15 18  1  0
 16 19  1  0
 18 21  1  0
 19 22  1  0
 21 22  2  0
 21 23  1  0
  6 25  1  0
  8 26  1  0
  8 27  1  0
  9 28  1  0
  9 29  1  0
 10 30  1  1
 12 31  1  1
 13 32  1  0
 13 33  1  0
 14 34  1  0
 17 35  1  0
 17 36  1  0
 20 37  1  0
 20 38  1  0
 20 39  1  0
 23 40  1  0
 23 41  1  0
 23 42  1  0
M  END
>  <ALOGPS_LOGP>  (1) 
-0.55

>  <ALOGPS_LOGS>  (1) 
-1.52

>  <ALOGPS_SOLUBILITY>  (1) 
1.01e+01 g/l

>  <DATABASE_ID>  (1) 
DB00305

>  <DATABASE_NAME>  (1) 
drugbank

>  <DRUGBANK_ID>  (1) 
DB00305

>  <DRUG_GROUPS>  (1) 
approved

>  <EXACT_MASS>  (1) 
334.127719706

>  <FORMULA>  (1) 
C15H18N4O5

>  <GENERIC_NAME>  (1) 
Mitomycin

>  <INCHI_IDENTIFIER>  (1) 
InChI=1S/C15H18N4O5/c1-5-9(16)12(21)8-6(4-24-14(17)22)15(23-2)13-7(18-13)3-19(15)10(8)11(5)20/h6-7,13,18H,3-4,16H2,1-2H3,(H2,17,22)/t6-,7+,13+,15-/m1/s1

>  <INCHI_KEY>  (1) 
NWIBSHFKIJFRCO-WUDYKRTCSA-N

>  <INTERNATIONAL_BRANDS>  (1) 
Mitozytrex; Mutamycin

>  <JCHEM_ACCEPTOR_COUNT>  (1) 
7

>  <JCHEM_AVERAGE_POLARIZABILITY>  (1) 
32.771578111969

>  <JCHEM_BIOAVAILABILITY>  (1) 
1

>  <JCHEM_DONOR_COUNT>  (1) 
3

>  <JCHEM_FORMAL_CHARGE>  (1) 
0

>  <JCHEM_GHOSE_FILTER>  (1) 
0

>  <JCHEM_IUPAC>  (1) 
[(4S,6S,7R,8S)-11-amino-7-methoxy-12-methyl-10,13-dioxo-2,5-diazatetracyclo[7.4.0.0²,⁷.0⁴,⁶]trideca-1(9),11-dien-8-yl]methyl carbamate

>  <JCHEM_LOGP>  (1) 
-2.957511963722018

>  <JCHEM_MDDR_LIKE_RULE>  (1) 
0

>  <JCHEM_NUMBER_OF_RINGS>  (1) 
4

>  <JCHEM_PHYSIOLOGICAL_CHARGE>  (1) 
0

>  <JCHEM_PKA>  (1) 
15.668226398391905

>  <JCHEM_PKA_STRONGEST_ACIDIC>  (1) 
-0.3015826322633606

>  <JCHEM_PKA_STRONGEST_BASIC>  (1) 
6.798030276661671

>  <JCHEM_POLAR_SURFACE_AREA>  (1) 
146.89

>  <JCHEM_REFRACTIVITY>  (1) 
83.2689

>  <JCHEM_ROTATABLE_BOND_COUNT>  (1) 
4

>  <JCHEM_RULE_OF_FIVE>  (1) 
1

>  <JCHEM_TRADITIONAL_IUPAC>  (1) 
mitomycin c

>  <JCHEM_VEBER_RULE>  (1) 
0

>  <MOLECULAR_WEIGHT>  (1) 
334.3272

>  <PRODUCTS>  (1) 
Mitomycin; Mitomycin for Injection; Mitomycin for Injection USP; Mitosol; Mutamycin; Mutamycin Inj 20mg/vial; Mutamycin Inj 5mg/vial

>  <SECONDARY_ACCESSION_NUMBERS>  (1) 
APRD00284

>  <SMILES>  (1) 
CO[C@]12[C@H]3N[C@H]3CN1C1=C([C@H]2COC(N)=O)C(=O)C(N)=C(C)C1=O

>  <SYNONYMS>  (1) 
7-Amino-9alpha-methoxymitosane; Ametycine; Mitamycin; Mitocin-C; Mitomycin C; MMC

$$$$
