991
     RDKit          2D

 37 39  0  0  0  0  0  0  0  0999 V2000
    3.9298    0.2443    0.0000 O   0  0  0  0  0  0  0  0  0  0  0  0
    2.8061    3.0865    0.0000 O   0  0  0  0  0  0  0  0  0  0  0  0
    1.6500    2.2466    0.0000 O   0  0  0  0  0  0  0  0  0  0  0  0
    2.8498   -0.5404    0.0000 N   0  0  0  0  0  0  0  0  0  0  0  0
    4.1848   -0.5404    0.0000 C   0  0  0  0  0  0  0  0  0  0  0  0
    3.5173   -1.0253    0.0000 C   0  0  0  0  0  0  0  0  0  0  0  0
    3.1048    0.2443    0.0000 C   0  0  0  0  0  0  0  0  0  0  0  0
    2.6199    0.9117    0.0000 C   0  0  0  0  0  0  0  0  0  0  0  0
    4.9693   -0.7953    0.0000 C   0  0  0  0  0  0  0  0  0  0  0  0
    3.5173   -1.8503    0.0000 C   0  0  0  0  0  0  0  0  0  0  0  0
    2.9554    1.6654    0.0000 C   0  0  0  0  0  0  0  0  0  0  0  0
    5.5825   -0.2433    0.0000 C   0  0  0  0  0  0  0  0  0  0  0  0
    5.1408   -1.6023    0.0000 C   0  0  0  0  0  0  0  0  0  0  0  0
    4.2318   -2.2628    0.0000 C   0  0  0  0  0  0  0  0  0  0  0  0
    2.8028   -2.2628    0.0000 C   0  0  0  0  0  0  0  0  0  0  0  0
    6.3671   -0.4982    0.0000 C   0  0  0  0  0  0  0  0  0  0  0  0
    5.9255   -1.8572    0.0000 C   0  0  0  0  0  0  0  0  0  0  0  0
    4.2318   -3.0878    0.0000 C   0  0  0  0  0  0  0  0  0  0  0  0
    2.8028   -3.0878    0.0000 C   0  0  0  0  0  0  0  0  0  0  0  0
    2.4705    2.3328    0.0000 C   0  0  0  0  0  0  0  0  0  0  0  0
    6.5386   -1.3052    0.0000 C   0  0  0  0  0  0  0  0  0  0  0  0
    3.5173   -3.5003    0.0000 C   0  0  0  0  0  0  0  0  0  0  0  0
    0.0000    0.0000    0.0000 H   0  0  0  0  0  0  0  0  0  0  0  0
    0.0000    0.0000    0.0000 H   0  0  0  0  0  0  0  0  0  0  0  0
    0.0000    0.0000    0.0000 H   0  0  0  0  0  0  0  0  0  0  0  0
    0.0000    0.0000    0.0000 H   0  0  0  0  0  0  0  0  0  0  0  0
    0.0000    0.0000    0.0000 H   0  0  0  0  0  0  0  0  0  0  0  0
    0.0000    0.0000    0.0000 H   0  0  0  0  0  0  0  0  0  0  0  0
    0.0000    0.0000    0.0000 H   0  0  0  0  0  0  0  0  0  0  0  0
    0.0000    0.0000    0.0000 H   0  0  0  0  0  0  0  0  0  0  0  0
    0.0000    0.0000    0.0000 H   0  0  0  0  0  0  0  0  0  0  0  0
    0.0000    0.0000    0.0000 H   0  0  0  0  0  0  0  0  0  0  0  0
    0.0000    0.0000    0.0000 H   0  0  0  0  0  0  0  0  0  0  0  0
    0.0000    0.0000    0.0000 H   0  0  0  0  0  0  0  0  0  0  0  0
    0.0000    0.0000    0.0000 H   0  0  0  0  0  0  0  0  0  0  0  0
    0.0000    0.0000    0.0000 H   0  0  0  0  0  0  0  0  0  0  0  0
    0.0000    0.0000    0.0000 H   0  0  0  0  0  0  0  0  0  0  0  0
  1  5  1  0
  1  7  1  0
  2 20  1  0
  3 20  2  0
  4  6  1  0
  4  7  2  0
  5  6  2  0
  5  9  1  0
  6 10  1  0
  7  8  1  0
  8 11  1  0
  9 12  2  0
  9 13  1  0
 10 14  2  0
 10 15  1  0
 11 20  1  0
 12 16  1  0
 13 17  2  0
 14 18  1  0
 15 19  2  0
 16 21  2  0
 17 21  1  0
 18 22  2  0
 19 22  1  0
  2 23  1  0
  8 24  1  0
  8 25  1  0
 11 26  1  0
 11 27  1  0
 12 28  1  0
 13 29  1  0
 14 30  1  0
 15 31  1  0
 16 32  1  0
 17 33  1  0
 18 34  1  0
 19 35  1  0
 21 36  1  0
 22 37  1  0
M  END
>  <ALOGPS_LOGP>  (1) 
3.33

>  <ALOGPS_LOGS>  (1) 
-3.96

>  <ALOGPS_SOLUBILITY>  (1) 
3.25e-02 g/l

>  <DATABASE_ID>  (1) 
DB00991

>  <DATABASE_NAME>  (1) 
drugbank

>  <DRUGBANK_ID>  (1) 
DB00991

>  <DRUG_GROUPS>  (1) 
approved

>  <EXACT_MASS>  (1) 
293.105193351

>  <FORMULA>  (1) 
C18H15NO3

>  <GENERIC_NAME>  (1) 
Oxaprozin

>  <INCHI_IDENTIFIER>  (1) 
InChI=1S/C18H15NO3/c20-16(21)12-11-15-19-17(13-7-3-1-4-8-13)18(22-15)14-9-5-2-6-10-14/h1-10H,11-12H2,(H,20,21)

>  <INCHI_KEY>  (1) 
OFPXSFXSNFPTHF-UHFFFAOYSA-N

>  <INTERNATIONAL_BRANDS>  (1) 
Alvo; Daypro Alta

>  <JCHEM_ACCEPTOR_COUNT>  (1) 
3

>  <JCHEM_AVERAGE_POLARIZABILITY>  (1) 
31.689301840890796

>  <JCHEM_BIOAVAILABILITY>  (1) 
1

>  <JCHEM_DONOR_COUNT>  (1) 
1

>  <JCHEM_FORMAL_CHARGE>  (1) 
0

>  <JCHEM_GHOSE_FILTER>  (1) 
1

>  <JCHEM_IUPAC>  (1) 
3-(diphenyl-1,3-oxazol-2-yl)propanoic acid

>  <JCHEM_LOGP>  (1) 
3.463366851666667

>  <JCHEM_MDDR_LIKE_RULE>  (1) 
0

>  <JCHEM_NUMBER_OF_RINGS>  (1) 
3

>  <JCHEM_PHYSIOLOGICAL_CHARGE>  (1) 
-1

>  <JCHEM_PKA_STRONGEST_ACIDIC>  (1) 
4.953936803449895

>  <JCHEM_PKA_STRONGEST_BASIC>  (1) 
-0.5880169257249549

>  <JCHEM_POLAR_SURFACE_AREA>  (1) 
63.330000000000005

>  <JCHEM_REFRACTIVITY>  (1) 
81.87930000000003

>  <JCHEM_ROTATABLE_BOND_COUNT>  (1) 
5

>  <JCHEM_RULE_OF_FIVE>  (1) 
1

>  <JCHEM_TRADITIONAL_IUPAC>  (1) 
oxaprozin

>  <JCHEM_VEBER_RULE>  (1) 
0

>  <MOLECULAR_WEIGHT>  (1) 
293.3166

>  <PRODUCTS>  (1) 
Apo-oxaprozin; Daypro; Oxaprozin; Rhoxal-oxaprozin

>  <SALTS>  (1) 
Oxaprozin potassium

>  <SECONDARY_ACCESSION_NUMBERS>  (1) 
APRD00030

>  <SMILES>  (1) 
OC(=O)CCC1=NC(=C(O1)C1=CC=CC=C1)C1=CC=CC=C1

>  <SYNONYMS>  (1) 
Oxaprozina; Oxaprozine; Oxaprozinum

$$$$
