523
     RDKit          2D

 50 50  0  0  0  0  0  0  0  0999 V2000
    0.9574   -5.0146    0.0000 O   0  0  0  0  0  0  0  0  0  0  0  0
    2.3864   -5.0146    0.0000 O   0  0  0  0  0  0  0  0  0  0  0  0
    6.6732   -0.8896    0.0000 C   0  0  0  0  0  0  0  0  0  0  0  0
    7.3877   -1.3021    0.0000 C   0  0  0  0  0  0  0  0  0  0  0  0
    7.3877   -2.1271    0.0000 C   0  0  0  0  0  0  0  0  0  0  0  0
    5.9587   -1.3021    0.0000 C   0  0  0  0  0  0  0  0  0  0  0  0
    6.6732   -2.5396    0.0000 C   0  0  0  0  0  0  0  0  0  0  0  0
    5.9587   -2.1271    0.0000 C   0  0  0  0  0  0  0  0  0  0  0  0
    7.0605   -0.1611    0.0000 C   0  0  0  0  0  0  0  0  0  0  0  0
    6.2859   -0.1611    0.0000 C   0  0  0  0  0  0  0  0  0  0  0  0
    5.2443   -0.8896    0.0000 C   0  0  0  0  0  0  0  0  0  0  0  0
    5.2443   -2.5396    0.0000 C   0  0  0  0  0  0  0  0  0  0  0  0
    4.5298   -1.3021    0.0000 C   0  0  0  0  0  0  0  0  0  0  0  0
    3.8153   -0.8896    0.0000 C   0  0  0  0  0  0  0  0  0  0  0  0
    3.8153   -0.0646    0.0000 C   0  0  0  0  0  0  0  0  0  0  0  0
    3.1008   -1.3021    0.0000 C   0  0  0  0  0  0  0  0  0  0  0  0
    3.1008   -2.1271    0.0000 C   0  0  0  0  0  0  0  0  0  0  0  0
    2.3864   -2.5396    0.0000 C   0  0  0  0  0  0  0  0  0  0  0  0
    2.3864   -3.3646    0.0000 C   0  0  0  0  0  0  0  0  0  0  0  0
    3.1008   -3.7771    0.0000 C   0  0  0  0  0  0  0  0  0  0  0  0
    1.6719   -3.7771    0.0000 C   0  0  0  0  0  0  0  0  0  0  0  0
    1.6719   -4.6021    0.0000 C   0  0  0  0  0  0  0  0  0  0  0  0
    0.0000    0.0000    0.0000 H   0  0  0  0  0  0  0  0  0  0  0  0
    0.0000    0.0000    0.0000 H   0  0  0  0  0  0  0  0  0  0  0  0
    0.0000    0.0000    0.0000 H   0  0  0  0  0  0  0  0  0  0  0  0
    0.0000    0.0000    0.0000 H   0  0  0  0  0  0  0  0  0  0  0  0
    0.0000    0.0000    0.0000 H   0  0  0  0  0  0  0  0  0  0  0  0
    0.0000    0.0000    0.0000 H   0  0  0  0  0  0  0  0  0  0  0  0
    0.0000    0.0000    0.0000 H   0  0  0  0  0  0  0  0  0  0  0  0
    0.0000    0.0000    0.0000 H   0  0  0  0  0  0  0  0  0  0  0  0
    0.0000    0.0000    0.0000 H   0  0  0  0  0  0  0  0  0  0  0  0
    0.0000    0.0000    0.0000 H   0  0  0  0  0  0  0  0  0  0  0  0
    0.0000    0.0000    0.0000 H   0  0  0  0  0  0  0  0  0  0  0  0
    0.0000    0.0000    0.0000 H   0  0  0  0  0  0  0  0  0  0  0  0
    0.0000    0.0000    0.0000 H   0  0  0  0  0  0  0  0  0  0  0  0
    0.0000    0.0000    0.0000 H   0  0  0  0  0  0  0  0  0  0  0  0
    0.0000    0.0000    0.0000 H   0  0  0  0  0  0  0  0  0  0  0  0
    0.0000    0.0000    0.0000 H   0  0  0  0  0  0  0  0  0  0  0  0
    0.0000    0.0000    0.0000 H   0  0  0  0  0  0  0  0  0  0  0  0
    0.0000    0.0000    0.0000 H   0  0  0  0  0  0  0  0  0  0  0  0
    0.0000    0.0000    0.0000 H   0  0  0  0  0  0  0  0  0  0  0  0
    0.0000    0.0000    0.0000 H   0  0  0  0  0  0  0  0  0  0  0  0
    0.0000    0.0000    0.0000 H   0  0  0  0  0  0  0  0  0  0  0  0
    0.0000    0.0000    0.0000 H   0  0  0  0  0  0  0  0  0  0  0  0
    0.0000    0.0000    0.0000 H   0  0  0  0  0  0  0  0  0  0  0  0
    0.0000    0.0000    0.0000 H   0  0  0  0  0  0  0  0  0  0  0  0
    0.0000    0.0000    0.0000 H   0  0  0  0  0  0  0  0  0  0  0  0
    0.0000    0.0000    0.0000 H   0  0  0  0  0  0  0  0  0  0  0  0
    0.0000    0.0000    0.0000 H   0  0  0  0  0  0  0  0  0  0  0  0
    0.0000    0.0000    0.0000 H   0  0  0  0  0  0  0  0  0  0  0  0
  1 22  1  0
  2 22  2  0
  3  4  1  0
  3  6  1  0
  3  9  1  0
  3 10  1  0
  4  5  1  0
  5  7  1  0
  6  8  2  0
  6 11  1  0
  7  8  1  0
  8 12  1  0
 11 13  2  0
 13 14  1  0
 14 15  1  0
 14 16  2  0
 16 17  1  0
 17 18  2  0
 18 19  1  0
 19 20  1  0
 19 21  2  0
 21 22  1  0
  1 23  1  0
  4 24  1  0
  4 25  1  0
  5 26  1  0
  5 27  1  0
  7 28  1  0
  7 29  1  0
  9 30  1  0
  9 31  1  0
  9 32  1  0
 10 33  1  0
 10 34  1  0
 10 35  1  0
 11 36  1  0
 12 37  1  0
 12 38  1  0
 12 39  1  0
 13 40  1  0
 15 41  1  0
 15 42  1  0
 15 43  1  0
 16 44  1  0
 17 45  1  0
 18 46  1  0
 20 47  1  0
 20 48  1  0
 20 49  1  0
 21 50  1  0
M  END
>  <ALOGPS_LOGP>  (1) 
5.66

>  <ALOGPS_LOGS>  (1) 
-4.80

>  <ALOGPS_SOLUBILITY>  (1) 
4.77e-03 g/l

>  <DATABASE_ID>  (1) 
DB00523

>  <DATABASE_NAME>  (1) 
drugbank

>  <DRUGBANK_ID>  (1) 
DB00523

>  <DRUG_GROUPS>  (1) 
approved; investigational

>  <EXACT_MASS>  (1) 
300.20893014

>  <FORMULA>  (1) 
C20H28O2

>  <GENERIC_NAME>  (1) 
Alitretinoin

>  <INCHI_IDENTIFIER>  (1) 
InChI=1S/C20H28O2/c1-15(8-6-9-16(2)14-19(21)22)11-12-18-17(3)10-7-13-20(18,4)5/h6,8-9,11-12,14H,7,10,13H2,1-5H3,(H,21,22)/b9-6+,12-11+,15-8-,16-14+

>  <INCHI_KEY>  (1) 
SHGAZHPCJJPHSC-ZVCIMWCZSA-N

>  <JCHEM_ACCEPTOR_COUNT>  (1) 
2

>  <JCHEM_AVERAGE_POLARIZABILITY>  (1) 
35.951277654032104

>  <JCHEM_BIOAVAILABILITY>  (1) 
1

>  <JCHEM_DONOR_COUNT>  (1) 
1

>  <JCHEM_FORMAL_CHARGE>  (1) 
0

>  <JCHEM_GHOSE_FILTER>  (1) 
1

>  <JCHEM_IUPAC>  (1) 
(2E,4E,6Z,8E)-3,7-dimethyl-9-(2,6,6-trimethylcyclohex-1-en-1-yl)nona-2,4,6,8-tetraenoic acid

>  <JCHEM_LOGP>  (1) 
5.014367711

>  <JCHEM_MDDR_LIKE_RULE>  (1) 
0

>  <JCHEM_NUMBER_OF_RINGS>  (1) 
1

>  <JCHEM_PHYSIOLOGICAL_CHARGE>  (1) 
-1

>  <JCHEM_PKA_STRONGEST_ACIDIC>  (1) 
4.996647744997455

>  <JCHEM_POLAR_SURFACE_AREA>  (1) 
37.3

>  <JCHEM_REFRACTIVITY>  (1) 
97.79079999999999

>  <JCHEM_ROTATABLE_BOND_COUNT>  (1) 
5

>  <JCHEM_RULE_OF_FIVE>  (1) 
0

>  <JCHEM_TRADITIONAL_IUPAC>  (1) 
alitretinoin

>  <JCHEM_VEBER_RULE>  (1) 
1

>  <MOLECULAR_WEIGHT>  (1) 
300.4351

>  <PRODUCTS>  (1) 
Panretin; Toctino

>  <SECONDARY_ACCESSION_NUMBERS>  (1) 
APRD00017

>  <SMILES>  (1) 
C\C(\C=C\C1=C(C)CCCC1(C)C)=C\C=C\C(\C)=C\C(O)=O

>  <SYNONYMS>  (1) 
(2E,4E,6Z,8E)-3,7-dimethyl-9-(2,6,6-trimethyl-1-cyclohexen-1-yl)-2,4,6,8-nonatetraenoic acid; (7E,9Z,11E,13E)-retinoic acid; 9-cis-retinoic acid; 9-cis-Tretinoin; 9(Z)-Retinoic acid; Alitretinoin; Alitretinoína; Alitrétinoïne; Alitretinoinum

$$$$
