253
     RDKit          2D

 57 60  0  0  1  0  0  0  0  0999 V2000
    3.9559    1.2662    0.0000 O   0  0  0  0  0  0  0  0  0  0  0  0
    6.5852    2.5034    0.0000 O   0  0  0  0  0  0  0  0  0  0  0  0
    1.6500   -1.6644    0.0000 O   0  0  0  0  0  0  0  0  0  0  0  0
    6.0993    0.0287    0.0000 C   0  0  0  0  0  0  0  0  0  0  0  0
    6.0993    0.8537    0.0000 C   0  0  0  0  0  0  0  0  0  0  0  0
    5.3849   -0.3838    0.0000 C   0  0  0  0  0  0  0  0  0  0  0  0
    4.6703    0.0287    0.0000 C   0  0  0  0  0  0  0  0  0  0  0  0
    3.9196   -0.3894    0.0000 C   0  0  0  0  0  0  0  0  0  0  0  0
    5.3849    1.2662    0.0000 C   0  0  0  0  0  0  0  0  0  0  0  0
    4.6703    0.8537    0.0000 C   0  0  0  0  0  0  0  0  0  0  0  0
    6.8799    1.1052    0.0000 C   0  0  0  0  0  0  0  0  0  0  0  0
    6.8799   -0.2227    0.0000 C   0  0  0  0  0  0  0  0  0  0  0  0
    5.3981   -1.2430    0.0000 C   0  0  0  0  0  0  0  0  0  0  0  0
    7.3614    0.4412    0.0000 C   0  0  0  0  0  0  0  0  0  0  0  0
    4.6572   -1.6784    0.0000 C   0  0  0  0  0  0  0  0  0  0  0  0
    3.9130   -1.2487    0.0000 C   0  0  0  0  0  0  0  0  0  0  0  0
    6.0993    1.6787    0.0000 C   0  0  0  0  0  0  0  0  0  0  0  0
    3.1550    0.0760    0.0000 C   0  0  0  0  0  0  0  0  0  0  0  0
    3.9259    0.4356    0.0000 C   0  0  0  0  0  0  0  0  0  0  0  0
    7.1363    1.8893    0.0000 C   0  0  0  0  0  0  0  0  0  0  0  0
    2.3729   -0.3596    0.0000 C   0  0  0  0  0  0  0  0  0  0  0  0
    3.1413   -1.7022    0.0000 C   0  0  0  0  0  0  0  0  0  0  0  0
    4.6603   -2.5034    0.0000 C   0  0  0  0  0  0  0  0  0  0  0  0
    2.3660   -1.2547    0.0000 C   0  0  0  0  0  0  0  0  0  0  0  0
    7.9435    2.0594    0.0000 C   0  0  0  0  0  0  0  0  0  0  0  0
    0.0000    0.0000    0.0000 H   0  0  0  0  0  0  0  0  0  0  0  0
    0.0000    0.0000    0.0000 H   0  0  0  0  0  0  0  0  0  0  0  0
    0.0000    0.0000    0.0000 H   0  0  0  0  0  0  0  0  0  0  0  0
    0.0000    0.0000    0.0000 H   0  0  0  0  0  0  0  0  0  0  0  0
    0.0000    0.0000    0.0000 H   0  0  0  0  0  0  0  0  0  0  0  0
    0.0000    0.0000    0.0000 H   0  0  0  0  0  0  0  0  0  0  0  0
    0.0000    0.0000    0.0000 H   0  0  0  0  0  0  0  0  0  0  0  0
    0.0000    0.0000    0.0000 H   0  0  0  0  0  0  0  0  0  0  0  0
    0.0000    0.0000    0.0000 H   0  0  0  0  0  0  0  0  0  0  0  0
    0.0000    0.0000    0.0000 H   0  0  0  0  0  0  0  0  0  0  0  0
    0.0000    0.0000    0.0000 H   0  0  0  0  0  0  0  0  0  0  0  0
    0.0000    0.0000    0.0000 H   0  0  0  0  0  0  0  0  0  0  0  0
    0.0000    0.0000    0.0000 H   0  0  0  0  0  0  0  0  0  0  0  0
    0.0000    0.0000    0.0000 H   0  0  0  0  0  0  0  0  0  0  0  0
    0.0000    0.0000    0.0000 H   0  0  0  0  0  0  0  0  0  0  0  0
    0.0000    0.0000    0.0000 H   0  0  0  0  0  0  0  0  0  0  0  0
    0.0000    0.0000    0.0000 H   0  0  0  0  0  0  0  0  0  0  0  0
    0.0000    0.0000    0.0000 H   0  0  0  0  0  0  0  0  0  0  0  0
    0.0000    0.0000    0.0000 H   0  0  0  0  0  0  0  0  0  0  0  0
    0.0000    0.0000    0.0000 H   0  0  0  0  0  0  0  0  0  0  0  0
    0.0000    0.0000    0.0000 H   0  0  0  0  0  0  0  0  0  0  0  0
    0.0000    0.0000    0.0000 H   0  0  0  0  0  0  0  0  0  0  0  0
    0.0000    0.0000    0.0000 H   0  0  0  0  0  0  0  0  0  0  0  0
    0.0000    0.0000    0.0000 H   0  0  0  0  0  0  0  0  0  0  0  0
    0.0000    0.0000    0.0000 H   0  0  0  0  0  0  0  0  0  0  0  0
    0.0000    0.0000    0.0000 H   0  0  0  0  0  0  0  0  0  0  0  0
    0.0000    0.0000    0.0000 H   0  0  0  0  0  0  0  0  0  0  0  0
    0.0000    0.0000    0.0000 H   0  0  0  0  0  0  0  0  0  0  0  0
    0.0000    0.0000    0.0000 H   0  0  0  0  0  0  0  0  0  0  0  0
    0.0000    0.0000    0.0000 H   0  0  0  0  0  0  0  0  0  0  0  0
    0.0000    0.0000    0.0000 H   0  0  0  0  0  0  0  0  0  0  0  0
    0.0000    0.0000    0.0000 H   0  0  0  0  0  0  0  0  0  0  0  0
 10  1  1  1
  2 20  2  0
  3 24  2  0
  4  5  1  0
  4  6  1  0
  4 12  1  0
  5  9  1  0
  5 11  1  0
  5 17  1  1
  6  7  1  0
  6 13  1  0
  7  8  1  0
  7 10  1  0
  8 16  1  0
  8 18  1  0
  8 19  1  1
  9 10  1  0
 11 14  1  0
 11 20  1  1
 12 14  1  0
 13 15  1  0
 15 16  1  0
 15 23  1  6
 16 22  2  0
 18 21  1  0
 20 25  1  0
 21 24  1  0
 22 24  1  0
  1 26  1  0
  4 27  1  6
  6 28  1  1
  7 29  1  6
  9 30  1  0
  9 31  1  0
 10 32  1  0
 11 33  1  0
 12 34  1  0
 12 35  1  0
 13 36  1  0
 13 37  1  0
 14 38  1  0
 14 39  1  0
 15 40  1  0
 17 41  1  0
 17 42  1  0
 17 43  1  0
 18 44  1  0
 18 45  1  0
 19 46  1  0
 19 47  1  0
 19 48  1  0
 21 49  1  0
 21 50  1  0
 22 51  1  0
 23 52  1  0
 23 53  1  0
 23 54  1  0
 25 55  1  0
 25 56  1  0
 25 57  1  0
M  END
>  <ALOGPS_LOGP>  (1) 
3.06

>  <ALOGPS_LOGS>  (1) 
-4.01

>  <ALOGPS_SOLUBILITY>  (1) 
3.37e-02 g/l

>  <DATABASE_ID>  (1) 
DB00253

>  <DATABASE_NAME>  (1) 
drugbank

>  <DRUGBANK_ID>  (1) 
DB00253

>  <DRUG_GROUPS>  (1) 
approved

>  <EXACT_MASS>  (1) 
344.23514489

>  <FORMULA>  (1) 
C22H32O3

>  <GENERIC_NAME>  (1) 
Medrysone

>  <INCHI_IDENTIFIER>  (1) 
InChI=1S/C22H32O3/c1-12-9-15-17-6-5-16(13(2)23)22(17,4)11-19(25)20(15)21(3)8-7-14(24)10-18(12)21/h10,12,15-17,19-20,25H,5-9,11H2,1-4H3/t12-,15-,16+,17-,19-,20+,21-,22+/m0/s1

>  <INCHI_KEY>  (1) 
GZENKSODFLBBHQ-ILSZZQPISA-N

>  <JCHEM_ACCEPTOR_COUNT>  (1) 
3

>  <JCHEM_AVERAGE_POLARIZABILITY>  (1) 
39.916409731169125

>  <JCHEM_BIOAVAILABILITY>  (1) 
1

>  <JCHEM_DONOR_COUNT>  (1) 
1

>  <JCHEM_FORMAL_CHARGE>  (1) 
0

>  <JCHEM_GHOSE_FILTER>  (1) 
1

>  <JCHEM_IUPAC>  (1) 
(1S,2R,8S,10S,11S,14S,15S,17S)-14-acetyl-17-hydroxy-2,8,15-trimethyltetracyclo[8.7.0.0²,⁷.0¹¹,¹⁵]heptadec-6-en-5-one

>  <JCHEM_LOGP>  (1) 
3.1268587000000005

>  <JCHEM_MDDR_LIKE_RULE>  (1) 
0

>  <JCHEM_NUMBER_OF_RINGS>  (1) 
4

>  <JCHEM_PHYSIOLOGICAL_CHARGE>  (1) 
0

>  <JCHEM_PKA>  (1) 
19.73356965070513

>  <JCHEM_PKA_STRONGEST_ACIDIC>  (1) 
19.136773343262778

>  <JCHEM_PKA_STRONGEST_BASIC>  (1) 
-0.259491695774292

>  <JCHEM_POLAR_SURFACE_AREA>  (1) 
54.37

>  <JCHEM_REFRACTIVITY>  (1) 
98.84639999999999

>  <JCHEM_ROTATABLE_BOND_COUNT>  (1) 
1

>  <JCHEM_RULE_OF_FIVE>  (1) 
1

>  <JCHEM_TRADITIONAL_IUPAC>  (1) 
medrysone

>  <JCHEM_VEBER_RULE>  (1) 
0

>  <MOLECULAR_WEIGHT>  (1) 
344.4877

>  <PRODUCTS>  (1) 
Hms

>  <SECONDARY_ACCESSION_NUMBERS>  (1) 
APRD01091

>  <SMILES>  (1) 
[H][C@@]12CC[C@H](C(C)=O)[C@@]1(C)C[C@H](O)[C@@]1([H])[C@@]2([H])C[C@H](C)C2=CC(=O)CC[C@]12C

$$$$
