
     RDKit          2D

 44 46  0  0  1  0  0  0  0  0999 V2000
   -0.7145    0.4125    0.0000 O   0  0  0  0  0  0  0  0  0  0  0  0
    0.0000    0.0000    0.0000 C   0  0  0  0  0  0  0  0  0  0  0  0
    0.7145    0.4125    0.0000 C   0  0  0  0  0  0  0  0  0  0  0  0
    0.0000   -0.8250    0.0000 O   0  0  0  0  0  0  0  0  0  0  0  0
    0.7145    1.2375    0.0000 C   0  0  0  0  0  0  0  0  0  0  0  0
    1.4289    1.6500    0.0000 O   0  0  0  0  0  0  0  0  0  0  0  0
    1.4290    0.0000    0.0000 C   0  0  0  0  0  0  0  0  0  0  0  0
    1.4290   -0.8250    0.0000 C   0  0  0  0  0  0  0  0  0  0  0  0
    2.1434    0.4125    0.0000 C   0  0  0  0  0  0  0  0  0  0  0  0
    2.8579    0.0001    0.0000 C   0  0  0  0  0  0  0  0  0  0  0  0
    2.8579   -0.8250    0.0000 C   0  0  0  0  0  0  0  0  0  0  0  0
    2.1434   -1.2375    0.0000 C   0  0  0  0  0  0  0  0  0  0  0  0
   -2.0738   -1.3395    0.0000 C   0  0  0  0  0  0  0  0  0  0  0  0
   -1.4289   -0.8250    0.0000 C   0  0  0  0  0  0  0  0  0  0  0  0
   -2.8782   -1.1559    0.0000 C   0  0  0  0  0  0  0  0  0  0  0  0
   -3.2362   -0.4127    0.0000 C   0  0  0  0  0  0  0  0  0  0  0  0
   -2.8783    0.3307    0.0000 C   0  0  0  0  0  0  0  0  0  0  0  0
   -2.0740    0.5143    0.0000 C   0  0  0  0  0  0  0  0  0  0  0  0
   -1.4289    0.0000    0.0000 C   0  0  0  0  0  0  0  0  0  0  0  0
   -2.7353   -0.6293    0.0000 N   0  0  0  0  0  0  0  0  0  0  0  0
   -2.0208   -0.2168    0.0000 C   0  0  0  0  0  0  0  0  0  0  0  0
    0.0000    0.0000    0.0000 H   0  0  0  0  0  0  0  0  0  0  0  0
    0.0000    0.0000    0.0000 H   0  0  0  0  0  0  0  0  0  0  0  0
    0.0000    0.0000    0.0000 H   0  0  0  0  0  0  0  0  0  0  0  0
    0.0000    0.0000    0.0000 H   0  0  0  0  0  0  0  0  0  0  0  0
    0.0000    0.0000    0.0000 H   0  0  0  0  0  0  0  0  0  0  0  0
    0.0000    0.0000    0.0000 H   0  0  0  0  0  0  0  0  0  0  0  0
    0.0000    0.0000    0.0000 H   0  0  0  0  0  0  0  0  0  0  0  0
    0.0000    0.0000    0.0000 H   0  0  0  0  0  0  0  0  0  0  0  0
    0.0000    0.0000    0.0000 H   0  0  0  0  0  0  0  0  0  0  0  0
    0.0000    0.0000    0.0000 H   0  0  0  0  0  0  0  0  0  0  0  0
    0.0000    0.0000    0.0000 H   0  0  0  0  0  0  0  0  0  0  0  0
    0.0000    0.0000    0.0000 H   0  0  0  0  0  0  0  0  0  0  0  0
    0.0000    0.0000    0.0000 H   0  0  0  0  0  0  0  0  0  0  0  0
    0.0000    0.0000    0.0000 H   0  0  0  0  0  0  0  0  0  0  0  0
    0.0000    0.0000    0.0000 H   0  0  0  0  0  0  0  0  0  0  0  0
    0.0000    0.0000    0.0000 H   0  0  0  0  0  0  0  0  0  0  0  0
    0.0000    0.0000    0.0000 H   0  0  0  0  0  0  0  0  0  0  0  0
    0.0000    0.0000    0.0000 H   0  0  0  0  0  0  0  0  0  0  0  0
    0.0000    0.0000    0.0000 H   0  0  0  0  0  0  0  0  0  0  0  0
    0.0000    0.0000    0.0000 H   0  0  0  0  0  0  0  0  0  0  0  0
    0.0000    0.0000    0.0000 H   0  0  0  0  0  0  0  0  0  0  0  0
    0.0000    0.0000    0.0000 H   0  0  0  0  0  0  0  0  0  0  0  0
    0.0000    0.0000    0.0000 H   0  0  0  0  0  0  0  0  0  0  0  0
 19  1  1  6
  2  1  1  0
  3  2  1  1
  3  7  1  0
  3  5  1  0
  2  4  2  0
  6  5  1  0
  8  7  2  0
  7  9  1  0
  8 12  1  0
  9 10  2  0
 10 11  1  0
 11 12  2  0
 14 13  1  0
 15 13  1  0
 13 20  1  0
 19 14  1  0
 16 15  1  0
 17 16  1  0
 18 17  1  0
 17 20  1  0
 18 19  1  0
 20 21  1  0
  3 22  1  0
  5 23  1  0
  5 24  1  0
  6 25  1  0
  8 26  1  0
  9 27  1  0
 10 28  1  0
 11 29  1  0
 12 30  1  0
 13 31  1  1
 14 32  1  0
 14 33  1  0
 15 34  1  0
 15 35  1  0
 16 36  1  0
 16 37  1  0
 17 38  1  1
 18 39  1  0
 18 40  1  0
 19 41  1  0
 21 42  1  0
 21 43  1  0
 21 44  1  0
M  END
>  <ALOGPS_LOGP>  (1) 
2.19

>  <ALOGPS_LOGS>  (1) 
-2.06

>  <ALOGPS_SOLUBILITY>  (1) 
2.52e+00 g/l

>  <DATABASE_ID>  (1) 
DB00424

>  <DATABASE_NAME>  (1) 
drugbank

>  <DRUGBANK_ID>  (1) 
DB00424

>  <DRUG_GROUPS>  (1) 
approved

>  <EXACT_MASS>  (1) 
289.167793607

>  <FORMULA>  (1) 
C17H23NO3

>  <GENERIC_NAME>  (1) 
Hyoscyamine

>  <INCHI_IDENTIFIER>  (1) 
InChI=1S/C17H23NO3/c1-18-13-7-8-14(18)10-15(9-13)21-17(20)16(11-19)12-5-3-2-4-6-12/h2-6,13-16,19H,7-11H2,1H3/t13-,14+,15+,16-/m1/s1

>  <INCHI_KEY>  (1) 
RKUNBYITZUJHSG-FXUDXRNXSA-N

>  <INTERNATIONAL_BRANDS>  (1) 
Acupaz; Anapaz; Anaspaz; Atropen; Boots Travel Calm; Buwecon; Cystospaz; Cytospaz; Donnamar; Egazil; Levbid; Levsinex; NuLev; Symax

>  <JCHEM_ACCEPTOR_COUNT>  (1) 
3

>  <JCHEM_AVERAGE_POLARIZABILITY>  (1) 
31.74108987462384

>  <JCHEM_BIOAVAILABILITY>  (1) 
1

>  <JCHEM_DONOR_COUNT>  (1) 
1

>  <JCHEM_FORMAL_CHARGE>  (1) 
0

>  <JCHEM_GHOSE_FILTER>  (1) 
1

>  <JCHEM_IUPAC>  (1) 
(1R,3R,5S)-8-methyl-8-azabicyclo[3.2.1]octan-3-yl (2S)-3-hydroxy-2-phenylpropanoate

>  <JCHEM_LOGP>  (1) 
1.571241016666666

>  <JCHEM_MDDR_LIKE_RULE>  (1) 
0

>  <JCHEM_NUMBER_OF_RINGS>  (1) 
3

>  <JCHEM_PHYSIOLOGICAL_CHARGE>  (1) 
1

>  <JCHEM_PKA_STRONGEST_ACIDIC>  (1) 
15.145740617562414

>  <JCHEM_PKA_STRONGEST_BASIC>  (1) 
9.3855618707585

>  <JCHEM_POLAR_SURFACE_AREA>  (1) 
49.77

>  <JCHEM_REFRACTIVITY>  (1) 
80.81640000000002

>  <JCHEM_ROTATABLE_BOND_COUNT>  (1) 
5

>  <JCHEM_RULE_OF_FIVE>  (1) 
1

>  <JCHEM_TRADITIONAL_IUPAC>  (1) 
levbid

>  <JCHEM_VEBER_RULE>  (1) 
0

>  <MOLECULAR_WEIGHT>  (1) 
289.3694

>  <PRODUCTS>  (1) 
Anaspaz; Azuphen Mb; B-Donna; Belladonna Alkaloids with Phenobarbital; Belladonna Alkaloids with Phenobartbital; Calmitol Itching Relief Ont; Diban Cap; Donnagel Liq; Donnatal; Donnatal Elixir; Donnatal Extentabs; Donnatal Extentabs Srt; Donnatal Tab; Ed-spaz; Hyolev Mb; Hyophen; Hyoscyamine; Hyoscyamine ER; Hyoscyamine SL; Hyoscyamine Sulfate; Hyoscyamine Sulfate Extended-Release; Hyoscyamine Sulfate ODT; Hyoscyamine Sulfate SL; Hyoscyamine Sulfate TAB; Hyosyne; Indiomin Mb; Levbid; Levsin; Levsin Drops 0.125mg/ml; Levsin SL; Me NaPhos MB Hyo 1; Me-PB-Hyos; NuLev; Oscimin; Phenohytro; Phosphasal; Quadrapax; Re-PB Hyos Elixir; Se-donna Pb Hyos; Symax Duotab; Symax FasTab; Symax SL; Symax SR; UR N-C Urinary Antiseptic; Uralgic; Uramit Mb; Urelle; Uribel; Urimar-T; Urin D/S; Uro-458; Uro-L; Uro-MP; UroAv-81; UroAv-B; Urogesic Blue; Urolet Mb; Urophen Mb; Ustell; Uta; Utira-C; Vilamit MB; Vilevev MB

>  <SALTS>  (1) 
Hyoscyamine hydrobromide; Hyoscyamine sulfate; Hyoscyamine sulfate dihydrate

>  <SECONDARY_ACCESSION_NUMBERS>  (1) 
APRD00607

>  <SMILES>  (1) 
CN1[C@H]2CC[C@@H]1C[C@@H](C2)OC(=O)[C@H](CO)C1=CC=CC=C1

>  <SYNONYMS>  (1) 
(−)-atropine; (−)-hyoscyamine; (S)-(−)-hyoscyamine; (S)-atropine; [3(S)-endo]-α-(hydroxymethyl)benzeneacetic acid 8-methyl-8-azabicyclo[3.2.1]oct-3-yl ester; Daturin; Daturine; Duboisine; Hyoscyamin; Hyoscyamine; Hyoscyaminum; L-Hyoscyamine; L-Tropine tropate; Tropine-L-tropate

$$$$
