
     RDKit          2D

 94 97  0  0  1  0  0  0  0  0999 V2000
    5.3033   -4.8395    0.0000 C   0  0  0  0  0  0  0  0  0  0  0  0
    6.4302   -4.5375    0.0000 C   0  0  0  0  0  0  0  0  0  0  0  0
    5.0013   -3.7125    0.0000 C   0  0  0  0  0  0  0  0  0  0  0  0
    2.5559   -2.9980    0.0000 C   0  0  0  0  0  0  0  0  0  0  0  0
    6.8427    4.4270    0.0000 C   0  0  0  0  0  0  0  0  0  0  0  0
    3.2704   -3.4105    0.0000 C   0  0  0  0  0  0  0  0  0  0  0  0
    2.5559   -2.1730    0.0000 C   0  0  0  0  0  0  0  0  0  0  0  0
    6.1283    4.0145    0.0000 C   0  0  0  0  0  0  0  0  0  0  0  0
    7.5572    4.0145    0.0000 C   0  0  0  0  0  0  0  0  0  0  0  0
    3.9849   -2.9980    0.0000 C   0  0  0  0  0  0  0  0  0  0  0  0
    3.2704   -1.7605    0.0000 C   0  0  0  0  0  0  0  0  0  0  0  0
    6.1283    3.1895    0.0000 C   0  0  0  0  0  0  0  0  0  0  0  0
    7.5572    3.1895    0.0000 C   0  0  0  0  0  0  0  0  0  0  0  0
    4.2868    0.0000    0.0000 C   0  0  0  0  0  0  0  0  0  0  0  0
    5.1118    0.0000    0.0000 C   0  0  0  0  0  0  0  0  0  0  0  0
    4.6993   -1.7605    0.0000 C   0  0  0  0  0  0  0  0  0  0  0  0
    6.8427    1.9520    0.0000 C   0  0  0  0  0  0  0  0  0  0  0  0
    7.5572   -0.9355    0.0000 C   0  0  0  0  0  0  0  0  0  0  0  0
    9.0254   -0.8586    0.0000 C   0  0  0  0  0  0  0  0  0  0  0  0
    5.4138   -2.9980    0.0000 C   0  0  0  0  0  0  0  0  0  0  0  0
    9.1649    0.4690    0.0000 C   0  0  0  0  0  0  0  0  0  0  0  0
    3.9849   -2.1730    0.0000 C   0  0  0  0  0  0  0  0  0  0  0  0
    6.8427    2.7770    0.0000 C   0  0  0  0  0  0  0  0  0  0  0  0
    4.6993    0.7145    0.0000 C   0  0  0  0  0  0  0  0  0  0  0  0
    5.4138   -2.1730    0.0000 C   0  0  0  0  0  0  0  0  0  0  0  0
    8.2717   -0.5230    0.0000 C   0  0  0  0  0  0  0  0  0  0  0  0
    6.1283    1.5395    0.0000 C   0  0  0  0  0  0  0  0  0  0  0  0
    6.8427   -0.5230    0.0000 C   0  0  0  0  0  0  0  0  0  0  0  0
    4.6993    1.5395    0.0000 C   0  0  0  0  0  0  0  0  0  0  0  0
    5.4138    1.9520    0.0000 C   0  0  0  0  0  0  0  0  0  0  0  0
    6.1283   -1.7605    0.0000 C   0  0  0  0  0  0  0  0  0  0  0  0
    6.8427    0.3020    0.0000 C   0  0  0  0  0  0  0  0  0  0  0  0
    5.7158   -4.1250    0.0000 C   0  0  0  0  0  0  0  0  0  0  0  0
    9.5774   -0.2455    0.0000 N   0  0  0  0  0  0  0  0  0  0  0  0
    8.3579    0.2975    0.0000 N   0  0  0  0  0  0  0  0  0  0  0  0
    6.1283    0.7145    0.0000 N   0  0  0  0  0  0  0  0  0  0  0  0
    6.1283   -0.9355    0.0000 N   0  0  0  0  0  0  0  0  0  0  0  0
    3.9849    1.9520    0.0000 O   0  0  0  0  0  0  0  0  0  0  0  0
    5.4138    2.7770    0.0000 O   0  0  0  0  0  0  0  0  0  0  0  0
    6.8427   -2.1730    0.0000 O   0  0  0  0  0  0  0  0  0  0  0  0
    7.5572    0.7145    0.0000 O   0  0  0  0  0  0  0  0  0  0  0  0
    6.8427   -3.8230    0.0000 O   0  0  0  0  0  0  0  0  0  0  0  0
    6.5408   -2.6961    0.0000 O   0  0  0  0  0  0  0  0  0  0  0  0
    6.1283   -3.4105    0.0000 S   0  0  0  0  0  0  0  0  0  0  0  0
    0.0000    0.0000    0.0000 H   0  0  0  0  0  0  0  0  0  0  0  0
    0.0000    0.0000    0.0000 H   0  0  0  0  0  0  0  0  0  0  0  0
    0.0000    0.0000    0.0000 H   0  0  0  0  0  0  0  0  0  0  0  0
    0.0000    0.0000    0.0000 H   0  0  0  0  0  0  0  0  0  0  0  0
    0.0000    0.0000    0.0000 H   0  0  0  0  0  0  0  0  0  0  0  0
    0.0000    0.0000    0.0000 H   0  0  0  0  0  0  0  0  0  0  0  0
    0.0000    0.0000    0.0000 H   0  0  0  0  0  0  0  0  0  0  0  0
    0.0000    0.0000    0.0000 H   0  0  0  0  0  0  0  0  0  0  0  0
    0.0000    0.0000    0.0000 H   0  0  0  0  0  0  0  0  0  0  0  0
    0.0000    0.0000    0.0000 H   0  0  0  0  0  0  0  0  0  0  0  0
    0.0000    0.0000    0.0000 H   0  0  0  0  0  0  0  0  0  0  0  0
    0.0000    0.0000    0.0000 H   0  0  0  0  0  0  0  0  0  0  0  0
    0.0000    0.0000    0.0000 H   0  0  0  0  0  0  0  0  0  0  0  0
    0.0000    0.0000    0.0000 H   0  0  0  0  0  0  0  0  0  0  0  0
    0.0000    0.0000    0.0000 H   0  0  0  0  0  0  0  0  0  0  0  0
    0.0000    0.0000    0.0000 H   0  0  0  0  0  0  0  0  0  0  0  0
    0.0000    0.0000    0.0000 H   0  0  0  0  0  0  0  0  0  0  0  0
    0.0000    0.0000    0.0000 H   0  0  0  0  0  0  0  0  0  0  0  0
    0.0000    0.0000    0.0000 H   0  0  0  0  0  0  0  0  0  0  0  0
    0.0000    0.0000    0.0000 H   0  0  0  0  0  0  0  0  0  0  0  0
    0.0000    0.0000    0.0000 H   0  0  0  0  0  0  0  0  0  0  0  0
    0.0000    0.0000    0.0000 H   0  0  0  0  0  0  0  0  0  0  0  0
    0.0000    0.0000    0.0000 H   0  0  0  0  0  0  0  0  0  0  0  0
    0.0000    0.0000    0.0000 H   0  0  0  0  0  0  0  0  0  0  0  0
    0.0000    0.0000    0.0000 H   0  0  0  0  0  0  0  0  0  0  0  0
    0.0000    0.0000    0.0000 H   0  0  0  0  0  0  0  0  0  0  0  0
    0.0000    0.0000    0.0000 H   0  0  0  0  0  0  0  0  0  0  0  0
    0.0000    0.0000    0.0000 H   0  0  0  0  0  0  0  0  0  0  0  0
    0.0000    0.0000    0.0000 H   0  0  0  0  0  0  0  0  0  0  0  0
    0.0000    0.0000    0.0000 H   0  0  0  0  0  0  0  0  0  0  0  0
    0.0000    0.0000    0.0000 H   0  0  0  0  0  0  0  0  0  0  0  0
    0.0000    0.0000    0.0000 H   0  0  0  0  0  0  0  0  0  0  0  0
    0.0000    0.0000    0.0000 H   0  0  0  0  0  0  0  0  0  0  0  0
    0.0000    0.0000    0.0000 H   0  0  0  0  0  0  0  0  0  0  0  0
    0.0000    0.0000    0.0000 H   0  0  0  0  0  0  0  0  0  0  0  0
    0.0000    0.0000    0.0000 H   0  0  0  0  0  0  0  0  0  0  0  0
    0.0000    0.0000    0.0000 H   0  0  0  0  0  0  0  0  0  0  0  0
    0.0000    0.0000    0.0000 H   0  0  0  0  0  0  0  0  0  0  0  0
    0.0000    0.0000    0.0000 H   0  0  0  0  0  0  0  0  0  0  0  0
    0.0000    0.0000    0.0000 H   0  0  0  0  0  0  0  0  0  0  0  0
    0.0000    0.0000    0.0000 H   0  0  0  0  0  0  0  0  0  0  0  0
    0.0000    0.0000    0.0000 H   0  0  0  0  0  0  0  0  0  0  0  0
    0.0000    0.0000    0.0000 H   0  0  0  0  0  0  0  0  0  0  0  0
    0.0000    0.0000    0.0000 H   0  0  0  0  0  0  0  0  0  0  0  0
    0.0000    0.0000    0.0000 H   0  0  0  0  0  0  0  0  0  0  0  0
    0.0000    0.0000    0.0000 H   0  0  0  0  0  0  0  0  0  0  0  0
    0.0000    0.0000    0.0000 H   0  0  0  0  0  0  0  0  0  0  0  0
    0.0000    0.0000    0.0000 H   0  0  0  0  0  0  0  0  0  0  0  0
    0.0000    0.0000    0.0000 H   0  0  0  0  0  0  0  0  0  0  0  0
    0.0000    0.0000    0.0000 H   0  0  0  0  0  0  0  0  0  0  0  0
  6  4  2  0
  7  4  1  0
  8  5  1  0
  9  5  1  0
 10  6  1  0
 11  7  2  0
 12  8  1  0
 13  9  1  0
 15 14  1  0
 22 10  2  0
 22 11  1  0
 22 16  1  0
 23 12  1  0
 23 13  1  0
 23 17  1  0
 24 14  1  0
 24 15  1  0
 25 16  1  1
 25 20  1  0
 26 18  1  0
 26 19  2  0
 27 17  1  1
 28 18  1  1
 29 24  1  6
 30 27  1  0
 30 29  1  0
 25 31  1  0
 32 28  1  0
 33  1  1  0
 33  2  1  0
 33  3  1  0
 34 19  1  0
 34 21  2  0
 35 21  1  0
 35 26  1  0
 27 36  1  0
 36 32  2  3
 28 37  1  0
 37 31  2  3
 29 38  1  0
 30 39  1  6
 31 40  1  0
 32 41  1  0
 44 20  1  0
 44 33  1  0
 44 42  2  0
 44 43  2  0
  1 45  1  0
  1 46  1  0
  1 47  1  0
  2 48  1  0
  2 49  1  0
  2 50  1  0
  3 51  1  0
  3 52  1  0
  3 53  1  0
  4 54  1  0
  5 55  1  0
  5 56  1  0
  6 57  1  0
  7 58  1  0
  8 59  1  0
  8 60  1  0
  9 61  1  0
  9 62  1  0
 10 63  1  0
 11 64  1  0
 12 65  1  0
 12 66  1  0
 13 67  1  0
 13 68  1  0
 14 69  1  0
 14 70  1  0
 15 71  1  0
 15 72  1  0
 16 73  1  0
 16 74  1  0
 17 75  1  0
 17 76  1  0
 18 77  1  0
 18 78  1  0
 19 79  1  0
 20 80  1  0
 20 81  1  0
 21 82  1  0
 23 83  1  0
 24 84  1  0
 25 85  1  0
 27 86  1  0
 28 87  1  0
 29 88  1  0
 30 89  1  0
 35 90  1  0
 38 91  1  0
 39 92  1  0
 40 93  1  0
 41 94  1  0
M  END
>  <ALOGPS_LOGP>  (1) 
3.56

>  <ALOGPS_LOGS>  (1) 
-4.69

>  <ALOGPS_SOLUBILITY>  (1) 
1.28e-02 g/l

>  <DATABASE_ID>  (1) 
DB00212

>  <DATABASE_NAME>  (1) 
drugbank

>  <DRUGBANK_ID>  (1) 
DB00212

>  <DRUG_GROUPS>  (1) 
approved

>  <EXACT_MASS>  (1) 
630.345106042

>  <FORMULA>  (1) 
C33H50N4O6S

>  <GENERIC_NAME>  (1) 
Remikiren

>  <INCHI_IDENTIFIER>  (1) 
InChI=1S/C33H50N4O6S/c1-33(2,3)44(42,43)20-25(16-22-10-6-4-7-11-22)31(40)37-28(18-26-19-34-21-35-26)32(41)36-27(17-23-12-8-5-9-13-23)30(39)29(38)24-14-15-24/h4,6-7,10-11,19,21,23-25,27-30,38-39H,5,8-9,12-18,20H2,1-3H3,(H,34,35)(H,36,41)(H,37,40)/t25-,27+,28+,29+,30-/m1/s1

>  <INCHI_KEY>  (1) 
UXIGZRQVLGFTOU-VQXQMPIVSA-N

>  <JCHEM_ACCEPTOR_COUNT>  (1) 
9

>  <JCHEM_AVERAGE_POLARIZABILITY>  (1) 
68.82346494943488

>  <JCHEM_BIOAVAILABILITY>  (1) 
0

>  <JCHEM_DONOR_COUNT>  (1) 
5

>  <JCHEM_FORMAL_CHARGE>  (1) 
0

>  <JCHEM_GHOSE_FILTER>  (1) 
0

>  <JCHEM_IUPAC>  (1) 
(2S)-2-{[(2S)-2-benzyl-1-hydroxy-3-(2-methylpropane-2-sulfonyl)propylidene]amino}-N-[(2S,3R,4S)-1-cyclohexyl-4-cyclopropyl-3,4-dihydroxybutan-2-yl]-3-(1H-imidazol-5-yl)propanimidic acid

>  <JCHEM_LOGP>  (1) 
3.216522030427102

>  <JCHEM_MDDR_LIKE_RULE>  (1) 
1

>  <JCHEM_NUMBER_OF_RINGS>  (1) 
4

>  <JCHEM_PHYSIOLOGICAL_CHARGE>  (1) 
1

>  <JCHEM_PKA>  (1) 
7.0763788016698195

>  <JCHEM_PKA_STRONGEST_ACIDIC>  (1) 
5.468798704242984

>  <JCHEM_PKA_STRONGEST_BASIC>  (1) 
6.486136274474017

>  <JCHEM_POLAR_SURFACE_AREA>  (1) 
168.45999999999998

>  <JCHEM_REFRACTIVITY>  (1) 
170.64270000000002

>  <JCHEM_ROTATABLE_BOND_COUNT>  (1) 
16

>  <JCHEM_RULE_OF_FIVE>  (1) 
0

>  <JCHEM_TRADITIONAL_IUPAC>  (1) 
remikiren

>  <JCHEM_VEBER_RULE>  (1) 
0

>  <MOLECULAR_WEIGHT>  (1) 
630.838

>  <SECONDARY_ACCESSION_NUMBERS>  (1) 
APRD00163

>  <SMILES>  (1) 
[H][C@@](CC1=CC=CC=C1)(CS(=O)(=O)C(C)(C)C)C(O)=N[C@@]([H])(CC1=CN=CN1)C(O)=N[C@@]([H])(CC1CCCCC1)[C@@]([H])(O)[C@@]([H])(O)C1CC1

$$$$
