497
     RDKit          2D

 44 48  0  0  1  0  0  0  0  0999 V2000
    1.9356   -0.3879    0.0000 O   0  0  0  0  0  0  0  0  0  0  0  0
    4.4727   -1.9232    0.0000 O   0  0  0  0  0  0  0  0  0  0  0  0
    1.7349   -2.5175    0.0000 O   0  0  0  0  0  0  0  0  0  0  0  0
    1.7349    1.6501    0.0000 O   0  0  0  0  0  0  0  0  0  0  0  0
    5.3440   -1.2588    0.0000 N   0  0  0  0  0  0  0  0  0  0  0  0
    3.2006   -0.8462    0.0000 C   0  0  0  0  0  0  0  0  0  0  0  0
    3.9151   -1.2588    0.0000 C   0  0  0  0  0  0  0  0  0  0  0  0
    4.6296   -0.8462    0.0000 C   0  0  0  0  0  0  0  0  0  0  0  0
    2.4861   -1.2588    0.0000 C   0  0  0  0  0  0  0  0  0  0  0  0
    3.6773   -0.2412    0.0000 C   0  0  0  0  0  0  0  0  0  0  0  0
    3.2006   -0.0213    0.0000 C   0  0  0  0  0  0  0  0  0  0  0  0
    3.9151   -2.0838    0.0000 C   0  0  0  0  0  0  0  0  0  0  0  0
    4.6296   -0.0213    0.0000 C   0  0  0  0  0  0  0  0  0  0  0  0
    4.8506   -0.2412    0.0000 C   0  0  0  0  0  0  0  0  0  0  0  0
    3.9151    0.3913    0.0000 C   0  0  0  0  0  0  0  0  0  0  0  0
    3.2006   -2.4963    0.0000 C   0  0  0  0  0  0  0  0  0  0  0  0
    2.4861   -2.0838    0.0000 C   0  0  0  0  0  0  0  0  0  0  0  0
    2.4861    0.3913    0.0000 C   0  0  0  0  0  0  0  0  0  0  0  0
    5.9350   -1.8938    0.0000 C   0  0  0  0  0  0  0  0  0  0  0  0
    3.9151    1.2163    0.0000 C   0  0  0  0  0  0  0  0  0  0  0  0
    2.4861    1.2163    0.0000 C   0  0  0  0  0  0  0  0  0  0  0  0
    3.2006    1.6288    0.0000 C   0  0  0  0  0  0  0  0  0  0  0  0
    1.7349    2.5175    0.0000 C   0  0  0  0  0  0  0  0  0  0  0  0
    0.0000    0.0000    0.0000 H   0  0  0  0  0  0  0  0  0  0  0  0
    0.0000    0.0000    0.0000 H   0  0  0  0  0  0  0  0  0  0  0  0
    0.0000    0.0000    0.0000 H   0  0  0  0  0  0  0  0  0  0  0  0
    0.0000    0.0000    0.0000 H   0  0  0  0  0  0  0  0  0  0  0  0
    0.0000    0.0000    0.0000 H   0  0  0  0  0  0  0  0  0  0  0  0
    0.0000    0.0000    0.0000 H   0  0  0  0  0  0  0  0  0  0  0  0
    0.0000    0.0000    0.0000 H   0  0  0  0  0  0  0  0  0  0  0  0
    0.0000    0.0000    0.0000 H   0  0  0  0  0  0  0  0  0  0  0  0
    0.0000    0.0000    0.0000 H   0  0  0  0  0  0  0  0  0  0  0  0
    0.0000    0.0000    0.0000 H   0  0  0  0  0  0  0  0  0  0  0  0
    0.0000    0.0000    0.0000 H   0  0  0  0  0  0  0  0  0  0  0  0
    0.0000    0.0000    0.0000 H   0  0  0  0  0  0  0  0  0  0  0  0
    0.0000    0.0000    0.0000 H   0  0  0  0  0  0  0  0  0  0  0  0
    0.0000    0.0000    0.0000 H   0  0  0  0  0  0  0  0  0  0  0  0
    0.0000    0.0000    0.0000 H   0  0  0  0  0  0  0  0  0  0  0  0
    0.0000    0.0000    0.0000 H   0  0  0  0  0  0  0  0  0  0  0  0
    0.0000    0.0000    0.0000 H   0  0  0  0  0  0  0  0  0  0  0  0
    0.0000    0.0000    0.0000 H   0  0  0  0  0  0  0  0  0  0  0  0
    0.0000    0.0000    0.0000 H   0  0  0  0  0  0  0  0  0  0  0  0
    0.0000    0.0000    0.0000 H   0  0  0  0  0  0  0  0  0  0  0  0
    0.0000    0.0000    0.0000 H   0  0  0  0  0  0  0  0  0  0  0  0
  1  9  1  0
  1 18  1  0
  7  2  1  1
  3 17  2  0
  4 21  1  0
  4 23  1  0
  5  8  1  0
  5 14  1  0
  5 19  1  0
  6  7  1  0
  6  9  1  0
  6 10  1  1
  6 11  1  0
  7  8  1  0
  7 12  1  0
  8 13  1  0
  9 17  1  0
 10 14  1  0
 11 15  2  0
 11 18  1  0
 12 16  1  0
 13 15  1  0
 15 20  1  0
 16 17  1  0
 18 21  2  0
 20 22  2  0
 21 22  1  0
  2 24  1  0
  8 25  1  6
  9 26  1  1
 10 27  1  0
 10 28  1  0
 12 29  1  0
 12 30  1  0
 13 31  1  0
 13 32  1  0
 14 33  1  0
 14 34  1  0
 16 35  1  0
 16 36  1  0
 19 37  1  0
 19 38  1  0
 19 39  1  0
 20 40  1  0
 22 41  1  0
 23 42  1  0
 23 43  1  0
 23 44  1  0
M  END
>  <ALOGPS_LOGP>  (1) 
1.04

>  <ALOGPS_LOGS>  (1) 
-1.75

>  <ALOGPS_SOLUBILITY>  (1) 
5.59e+00 g/l

>  <DATABASE_ID>  (1) 
DB00497

>  <DATABASE_NAME>  (1) 
drugbank

>  <DRUGBANK_ID>  (1) 
DB00497

>  <DRUG_GROUPS>  (1) 
approved; illicit; investigational

>  <EXACT_MASS>  (1) 
315.147058165

>  <FORMULA>  (1) 
C18H21NO4

>  <GENERIC_NAME>  (1) 
Oxycodone

>  <INCHI_IDENTIFIER>  (1) 
InChI=1S/C18H21NO4/c1-19-8-7-17-14-10-3-4-12(22-2)15(14)23-16(17)11(20)5-6-18(17,21)13(19)9-10/h3-4,13,16,21H,5-9H2,1-2H3/t13-,16+,17+,18-/m1/s1

>  <INCHI_KEY>  (1) 
BRUQQQPBMZOVGD-XFKAJCMBSA-N

>  <INTERNATIONAL_BRANDS>  (1) 
Oxanest; OxyIR

>  <JCHEM_ACCEPTOR_COUNT>  (1) 
5

>  <JCHEM_AVERAGE_POLARIZABILITY>  (1) 
32.804392636142786

>  <JCHEM_BIOAVAILABILITY>  (1) 
1

>  <JCHEM_DONOR_COUNT>  (1) 
1

>  <JCHEM_FORMAL_CHARGE>  (1) 
0

>  <JCHEM_GHOSE_FILTER>  (1) 
1

>  <JCHEM_IUPAC>  (1) 
(1S,5R,13R,17S)-17-hydroxy-10-methoxy-4-methyl-12-oxa-4-azapentacyclo[9.6.1.0¹,¹³.0⁵,¹⁷.0⁷,¹⁸]octadeca-7(18),8,10-trien-14-one

>  <JCHEM_LOGP>  (1) 
1.0348653926666662

>  <JCHEM_MDDR_LIKE_RULE>  (1) 
0

>  <JCHEM_NUMBER_OF_RINGS>  (1) 
5

>  <JCHEM_PHYSIOLOGICAL_CHARGE>  (1) 
1

>  <JCHEM_PKA>  (1) 
16.167994531792818

>  <JCHEM_PKA_STRONGEST_ACIDIC>  (1) 
13.56278837457051

>  <JCHEM_PKA_STRONGEST_BASIC>  (1) 
8.210139491712884

>  <JCHEM_POLAR_SURFACE_AREA>  (1) 
59.00000000000001

>  <JCHEM_REFRACTIVITY>  (1) 
84.04180000000002

>  <JCHEM_ROTATABLE_BOND_COUNT>  (1) 
1

>  <JCHEM_RULE_OF_FIVE>  (1) 
1

>  <JCHEM_TRADITIONAL_IUPAC>  (1) 
oxycodone

>  <JCHEM_VEBER_RULE>  (1) 
0

>  <MOLECULAR_WEIGHT>  (1) 
315.3636

>  <PRODUCTS>  (1) 
Act Oxycodone CR; Apo-oxycodone CR; Apo-oxycodone/acet; Endocet; Endodan; Ntp-oxycodone Acetaminophen; Nu-oxycodone/acet; OXYCODONE HCl; Oxaydo; Oxecta; Oxy.ir; OxyContin; Oxycodone; Oxycodone Apap; Oxycodone HCL; Oxycodone HCl; Oxycodone HCl Controlled-Release; Oxycodone Hydchloride; Oxycodone Hydrochloride; Oxycodone Hydrochloride Controlled-release; Oxycodone Hydrochloride and Acetaminophen; Oxycodone Hydrochloride and Aspirin; Oxycodone Hydrochloride and Ibuprofen; Oxycodone and Acetaminophen; Oxycodone and Aspirin; Oxycodone hydrochloride; Oxycodone hydrochloride and Ibuprofen; Oxycodone-acet; Oxycodone/acet; Oxycodone/acetaminophen; Oxycontin; Oxycontin 10mg; Oxycontin 20mg; Oxycontin 40mg; Oxycontin 5mg; Oxycontin 80mg; Oxyneo; PMS-oxycodone; PMS-oxycodone - Acetaminophen; PMS-oxycodone CR; Percocet; Percocet-demi; Percodan; Percodan-demi; Primlev; Ran-oxycodone CR; Ratio-oxycodan; Riva-oxycodone CR; Rivacocet; Rivacodan; Roxicet; Roxicet Tab; Roxicodone; Roxybond; Sandoz Oxycodone CR; Sandoz Oxycodone/acetaminophen; Supeudol; Supeudol 10; Supeudol 20; Supeudol 5; Targin; Teva-oxycocet; Teva-oxycodone CR; Troxyca ER; Xartemis XR; Xolox; Xtampza ER

>  <SALTS>  (1) 
Oxycodone hydrochloride; Oxycodone terephthalate

>  <SECONDARY_ACCESSION_NUMBERS>  (1) 
APRD00387

>  <SMILES>  (1) 
[H][C@@]12OC3=C(OC)C=CC4=C3[C@@]11CCN(C)[C@]([H])(C4)[C@]1(O)CCC2=O

>  <SYNONYMS>  (1) 
(-)-14-Hydroxydihydrocodeinone; 4,5-Epoxy-14-hydroxy-3-methoxy-17-methylmorphinan-6-one; 4,5alpha-Epoxy-14-hydroxy-3-methoxy-17-methylmorphinan-6-one; 4,5α-Epoxy-14-hydroxy-3-methoxy-17-methylmorphinan-6-one; Dihydro-14-hydroxycodeinone; Dihydrohydroxycodeinone; Dihydroxycodeinone; Oxicodona; Oxycodone; Oxycodonum

$$$$
