
     RDKit          2D

 81 80  0  0  1  0  0  0  0  0999 V2000
    4.1174  -13.5984    0.0000 C   0  0  0  0  0  0  0  0  0  0  0  0
    4.6023  -12.9308    0.0000 C   0  0  0  0  0  0  0  0  0  0  0  0
    4.3888  -12.1339    0.0000 O   0  0  0  0  0  0  0  0  0  0  0  0
    4.6023  -14.2657    0.0000 C   0  0  0  0  0  0  0  0  0  0  0  0
    4.3888  -15.0626    0.0000 O   0  0  0  0  0  0  0  0  0  0  0  0
    5.3869  -13.1859    0.0000 C   0  0  0  0  0  0  0  0  0  0  0  0
    6.1014  -12.7733    0.0000 C   0  0  0  0  0  0  0  0  0  0  0  0
    6.8159  -13.1859    0.0000 C   0  0  0  0  0  0  0  0  0  0  0  0
    7.6408  -13.1859    0.0000 C   0  0  0  0  0  0  0  0  0  0  0  0
    8.3552  -12.7733    0.0000 C   0  0  0  0  0  0  0  0  0  0  0  0
    9.0697  -13.1859    0.0000 C   0  0  0  0  0  0  0  0  0  0  0  0
    9.7842  -12.7733    0.0000 C   0  0  0  0  0  0  0  0  0  0  0  0
   10.4986  -13.9483    0.0000 O   0  0  0  0  0  0  0  0  0  0  0  0
   10.4986  -13.1859    0.0000 C   0  0  0  0  0  0  0  0  0  0  0  0
   11.2130  -12.7733    0.0000 O   0  0  0  0  0  0  0  0  0  0  0  0
    5.3869  -14.0107    0.0000 C   0  0  0  0  0  0  0  0  0  0  0  0
    6.1014  -14.4232    0.0000 C   0  0  0  0  0  0  0  0  0  0  0  0
    6.8159  -14.0107    0.0000 C   0  0  0  0  0  0  0  0  0  0  0  0
    8.2447  -14.0107    0.0000 C   0  0  0  0  0  0  0  0  0  0  0  0
    8.9592  -14.4232    0.0000 C   0  0  0  0  0  0  0  0  0  0  0  0
    9.6736  -14.0107    0.0000 C   0  0  0  0  0  0  0  0  0  0  0  0
   10.3881  -14.4232    0.0000 C   0  0  0  0  0  0  0  0  0  0  0  0
   11.1026  -14.0107    0.0000 C   0  0  0  0  0  0  0  0  0  0  0  0
    7.5302  -14.4232    0.0000 C   0  0  0  0  0  0  0  0  0  0  0  0
    7.1235  -15.1649    0.0000 O   0  0  0  0  0  0  0  0  0  0  0  0
    7.9370  -15.1410    0.0000 C   0  0  0  0  0  0  0  0  0  0  0  0
    7.2660  -10.9935    0.0000 O   0  0  0  0  0  0  0  0  0  0  0  0
    7.9805  -11.4060    0.0000 C   0  0  0  0  0  0  0  0  0  0  0  0
    8.6950  -10.9935    0.0000 C   0  0  0  0  0  0  0  0  0  0  0  0
    9.4095  -11.4060    0.0000 C   0  0  0  0  0  0  0  0  0  0  0  0
   10.1240  -10.9935    0.0000 O   0  0  0  0  0  0  0  0  0  0  0  0
    8.6950  -10.1685    0.0000 N   0  0  0  0  0  0  0  0  0  0  0  0
    8.9160  -11.7887    0.0000 C   0  0  0  0  0  0  0  0  0  0  0  0
    9.7149  -11.9947    0.0000 O   0  0  0  0  0  0  0  0  0  0  0  0
    0.0000    0.0000    0.0000 H   0  0  0  0  0  0  0  0  0  0  0  0
    0.0000    0.0000    0.0000 H   0  0  0  0  0  0  0  0  0  0  0  0
    0.0000    0.0000    0.0000 H   0  0  0  0  0  0  0  0  0  0  0  0
    0.0000    0.0000    0.0000 H   0  0  0  0  0  0  0  0  0  0  0  0
    0.0000    0.0000    0.0000 H   0  0  0  0  0  0  0  0  0  0  0  0
    0.0000    0.0000    0.0000 H   0  0  0  0  0  0  0  0  0  0  0  0
    0.0000    0.0000    0.0000 H   0  0  0  0  0  0  0  0  0  0  0  0
    0.0000    0.0000    0.0000 H   0  0  0  0  0  0  0  0  0  0  0  0
    0.0000    0.0000    0.0000 H   0  0  0  0  0  0  0  0  0  0  0  0
    0.0000    0.0000    0.0000 H   0  0  0  0  0  0  0  0  0  0  0  0
    0.0000    0.0000    0.0000 H   0  0  0  0  0  0  0  0  0  0  0  0
    0.0000    0.0000    0.0000 H   0  0  0  0  0  0  0  0  0  0  0  0
    0.0000    0.0000    0.0000 H   0  0  0  0  0  0  0  0  0  0  0  0
    0.0000    0.0000    0.0000 H   0  0  0  0  0  0  0  0  0  0  0  0
    0.0000    0.0000    0.0000 H   0  0  0  0  0  0  0  0  0  0  0  0
    0.0000    0.0000    0.0000 H   0  0  0  0  0  0  0  0  0  0  0  0
    0.0000    0.0000    0.0000 H   0  0  0  0  0  0  0  0  0  0  0  0
    0.0000    0.0000    0.0000 H   0  0  0  0  0  0  0  0  0  0  0  0
    0.0000    0.0000    0.0000 H   0  0  0  0  0  0  0  0  0  0  0  0
    0.0000    0.0000    0.0000 H   0  0  0  0  0  0  0  0  0  0  0  0
    0.0000    0.0000    0.0000 H   0  0  0  0  0  0  0  0  0  0  0  0
    0.0000    0.0000    0.0000 H   0  0  0  0  0  0  0  0  0  0  0  0
    0.0000    0.0000    0.0000 H   0  0  0  0  0  0  0  0  0  0  0  0
    0.0000    0.0000    0.0000 H   0  0  0  0  0  0  0  0  0  0  0  0
    0.0000    0.0000    0.0000 H   0  0  0  0  0  0  0  0  0  0  0  0
    0.0000    0.0000    0.0000 H   0  0  0  0  0  0  0  0  0  0  0  0
    0.0000    0.0000    0.0000 H   0  0  0  0  0  0  0  0  0  0  0  0
    0.0000    0.0000    0.0000 H   0  0  0  0  0  0  0  0  0  0  0  0
    0.0000    0.0000    0.0000 H   0  0  0  0  0  0  0  0  0  0  0  0
    0.0000    0.0000    0.0000 H   0  0  0  0  0  0  0  0  0  0  0  0
    0.0000    0.0000    0.0000 H   0  0  0  0  0  0  0  0  0  0  0  0
    0.0000    0.0000    0.0000 H   0  0  0  0  0  0  0  0  0  0  0  0
    0.0000    0.0000    0.0000 H   0  0  0  0  0  0  0  0  0  0  0  0
    0.0000    0.0000    0.0000 H   0  0  0  0  0  0  0  0  0  0  0  0
    0.0000    0.0000    0.0000 H   0  0  0  0  0  0  0  0  0  0  0  0
    0.0000    0.0000    0.0000 H   0  0  0  0  0  0  0  0  0  0  0  0
    0.0000    0.0000    0.0000 H   0  0  0  0  0  0  0  0  0  0  0  0
    0.0000    0.0000    0.0000 H   0  0  0  0  0  0  0  0  0  0  0  0
    0.0000    0.0000    0.0000 H   0  0  0  0  0  0  0  0  0  0  0  0
    0.0000    0.0000    0.0000 H   0  0  0  0  0  0  0  0  0  0  0  0
    0.0000    0.0000    0.0000 H   0  0  0  0  0  0  0  0  0  0  0  0
    0.0000    0.0000    0.0000 H   0  0  0  0  0  0  0  0  0  0  0  0
    0.0000    0.0000    0.0000 H   0  0  0  0  0  0  0  0  0  0  0  0
    0.0000    0.0000    0.0000 H   0  0  0  0  0  0  0  0  0  0  0  0
    0.0000    0.0000    0.0000 H   0  0  0  0  0  0  0  0  0  0  0  0
    0.0000    0.0000    0.0000 H   0  0  0  0  0  0  0  0  0  0  0  0
    0.0000    0.0000    0.0000 H   0  0  0  0  0  0  0  0  0  0  0  0
  2  1  1  0
  2  6  1  0
  1  4  1  0
  4 16  1  0
 16  6  1  0
  2  3  1  6
  4  5  1  6
  6  7  1  6
  7  8  1  0
  8  9  2  0
  9 10  1  0
 10 11  1  0
 11 12  1  0
 12 14  1  0
 14 13  2  0
 14 15  1  0
 16 17  1  6
 17 18  2  0
 24 18  1  1
 24 19  1  0
 19 20  1  0
 20 21  1  0
 21 22  1  0
 22 23  1  0
 24 25  1  0
 26 24  1  0
 28 27  1  0
 29 28  1  0
 30 29  1  0
 31 30  1  0
 29 32  1  0
 29 33  1  0
 33 34  1  0
  1 35  1  0
  1 36  1  0
  2 37  1  0
  3 38  1  0
  4 39  1  0
  5 40  1  0
  6 41  1  0
  7 42  1  0
  7 43  1  0
  8 44  1  0
  9 45  1  0
 10 46  1  0
 10 47  1  0
 11 48  1  0
 11 49  1  0
 12 50  1  0
 12 51  1  0
 16 52  1  0
 17 53  1  0
 18 54  1  0
 19 55  1  0
 19 56  1  0
 20 57  1  0
 20 58  1  0
 21 59  1  0
 21 60  1  0
 22 61  1  0
 22 62  1  0
 23 63  1  0
 23 64  1  0
 23 65  1  0
 25 66  1  0
 26 67  1  0
 26 68  1  0
 26 69  1  0
 27 70  1  0
 28 71  1  0
 28 72  1  0
 30 73  1  0
 30 74  1  0
 31 75  1  0
 32 76  1  0
 32 77  1  0
 32 78  1  0
 33 79  1  0
 33 80  1  0
 34 81  1  0
M  CHG  2  15  -1  32   1
M  END
>  <ALOGPS_LOGP>  (1) 
1.07

>  <ALOGPS_LOGS>  (1) 
-3.90

>  <ALOGPS_SOLUBILITY>  (1) 
6.22e-02 g/l

>  <DATABASE_ID>  (1) 
DB00429

>  <DATABASE_NAME>  (1) 
drugbank

>  <DRUGBANK_ID>  (1) 
DB00429

>  <DRUG_GROUPS>  (1) 
approved

>  <EXACT_MASS>  (1) 
489.330167485

>  <FORMULA>  (1) 
C25H47NO8

>  <GENERIC_NAME>  (1) 
Carboprost Tromethamine

>  <INCHI_IDENTIFIER>  (1) 
InChI=1S/C21H36O5.C4H11NO3/c1-3-4-9-13-21(2,26)14-12-17-16(18(22)15-19(17)23)10-7-5-6-8-11-20(24)25;5-4(1-6,2-7)3-8/h5,7,12,14,16-19,22-23,26H,3-4,6,8-11,13,15H2,1-2H3,(H,24,25);6-8H,1-3,5H2/b7-5-,14-12+;/t16-,17-,18+,19+,21+;/m1./s1

>  <INCHI_KEY>  (1) 
UMMADZJLZAPZAW-OVXHCKHTSA-N

>  <INTERNATIONAL_BRANDS>  (1) 
Carboprost; Deviprost; Prostin 15M; Prostinfenem; Prostodin

>  <JCHEM_ACCEPTOR_COUNT>  (1) 
5

>  <JCHEM_AVERAGE_POLARIZABILITY>  (1) 
42.51008542656798

>  <JCHEM_BIOAVAILABILITY>  (1) 
1

>  <JCHEM_DONOR_COUNT>  (1) 
3

>  <JCHEM_FORMAL_CHARGE>  (1) 
0

>  <JCHEM_GHOSE_FILTER>  (1) 
0

>  <JCHEM_IUPAC>  (1) 
1,3-dihydroxy-2-(hydroxymethyl)propan-2-aminium (5Z)-7-[(1R,2R,3S,5S)-3,5-dihydroxy-2-[(1E,3S)-3-hydroxy-3-methyloct-1-en-1-yl]cyclopentyl]hept-5-enoate

>  <JCHEM_LOGP>  (1) 
2.891631085666665

>  <JCHEM_MDDR_LIKE_RULE>  (1) 
0

>  <JCHEM_NUMBER_OF_RINGS>  (1) 
1

>  <JCHEM_PHYSIOLOGICAL_CHARGE>  (1) 
-1

>  <JCHEM_PKA>  (1) 
14.513956756173268

>  <JCHEM_PKA_STRONGEST_ACIDIC>  (1) 
4.3552946227378

>  <JCHEM_PKA_STRONGEST_BASIC>  (1) 
-1.2709061809334172

>  <JCHEM_POLAR_SURFACE_AREA>  (1) 
100.82000000000001

>  <JCHEM_REFRACTIVITY>  (1) 
115.946

>  <JCHEM_ROTATABLE_BOND_COUNT>  (1) 
15

>  <JCHEM_RULE_OF_FIVE>  (1) 
1

>  <JCHEM_TRADITIONAL_IUPAC>  (1) 
carboprost(1-); htris

>  <JCHEM_VEBER_RULE>  (1) 
0

>  <MOLECULAR_WEIGHT>  (1) 
489.6426

>  <PRODUCTS>  (1) 
Hemabate

>  <SECONDARY_ACCESSION_NUMBERS>  (1) 
APRD00847

>  <SMILES>  (1) 
OCC([NH3+])(CO)CO.CCCCC[C@@](O)(C)\C=C\[C@H]1[C@@H](O)C[C@H](O)[C@@H]1C\C=C/CCCC(=O)[O-]

>  <SYNONYMS>  (1) 
Carboprost; Methyldinoprost

$$$$
