
     RDKit          2D

 48 51  0  0  0  0  0  0  0  0999 V2000
   -0.7145   -0.8250    0.0000 C   0  0  0  0  0  0  0  0  0  0  0  0
   -1.4289   -0.4125    0.0000 C   0  0  0  0  0  0  0  0  0  0  0  0
   -1.4289    0.4125    0.0000 C   0  0  0  0  0  0  0  0  0  0  0  0
   -0.7145    0.8250    0.0000 C   0  0  0  0  0  0  0  0  0  0  0  0
    0.0000    0.4125    0.0000 C   0  0  0  0  0  0  0  0  0  0  0  0
    0.0000   -0.4125    0.0000 C   0  0  0  0  0  0  0  0  0  0  0  0
    0.7145   -0.8250    0.0000 N   0  0  0  0  0  0  0  0  0  0  0  0
    0.7145    0.8250    0.0000 C   0  0  0  0  0  0  0  0  0  0  0  0
    1.4289    0.4125    0.0000 C   0  0  0  0  0  0  0  0  0  0  0  0
    1.4289   -0.4125    0.0000 C   0  0  0  0  0  0  0  0  0  0  0  0
    1.4289    2.8875    0.0000 C   0  0  0  0  0  0  0  0  0  0  0  0
    2.8578    2.0626    0.0000 C   0  0  0  0  0  0  0  0  0  0  0  0
    2.8578    2.8876    0.0000 C   0  0  0  0  0  0  0  0  0  0  0  0
    2.5559    2.5857    0.0000 C   0  0  0  0  0  0  0  0  0  0  0  0
    3.5723    3.3001    0.0000 C   0  0  0  0  0  0  0  0  0  0  0  0
    2.1434    3.3001    0.0000 C   0  0  0  0  0  0  0  0  0  0  0  0
    2.1434    1.6501    0.0000 N   0  0  0  0  0  0  0  0  0  0  0  0
    2.5560    0.9357    0.0000 C   0  0  0  0  0  0  0  0  0  0  0  0
    4.2868    2.8876    0.0000 C   0  0  0  0  0  0  0  0  0  0  0  0
    1.4289    2.0625    0.0000 C   0  0  0  0  0  0  0  0  0  0  0  0
    0.7144    1.6500    0.0000 C   0  0  0  0  0  0  0  0  0  0  0  0
    0.0000    2.0625    0.0000 O   0  0  0  0  0  0  0  0  0  0  0  0
   -2.1435    0.8250    0.0000 O   0  0  0  0  0  0  0  0  0  0  0  0
   -2.8579    0.4125    0.0000 C   0  0  0  0  0  0  0  0  0  0  0  0
    0.0000    0.0000    0.0000 H   0  0  0  0  0  0  0  0  0  0  0  0
    0.0000    0.0000    0.0000 H   0  0  0  0  0  0  0  0  0  0  0  0
    0.0000    0.0000    0.0000 H   0  0  0  0  0  0  0  0  0  0  0  0
    0.0000    0.0000    0.0000 H   0  0  0  0  0  0  0  0  0  0  0  0
    0.0000    0.0000    0.0000 H   0  0  0  0  0  0  0  0  0  0  0  0
    0.0000    0.0000    0.0000 H   0  0  0  0  0  0  0  0  0  0  0  0
    0.0000    0.0000    0.0000 H   0  0  0  0  0  0  0  0  0  0  0  0
    0.0000    0.0000    0.0000 H   0  0  0  0  0  0  0  0  0  0  0  0
    0.0000    0.0000    0.0000 H   0  0  0  0  0  0  0  0  0  0  0  0
    0.0000    0.0000    0.0000 H   0  0  0  0  0  0  0  0  0  0  0  0
    0.0000    0.0000    0.0000 H   0  0  0  0  0  0  0  0  0  0  0  0
    0.0000    0.0000    0.0000 H   0  0  0  0  0  0  0  0  0  0  0  0
    0.0000    0.0000    0.0000 H   0  0  0  0  0  0  0  0  0  0  0  0
    0.0000    0.0000    0.0000 H   0  0  0  0  0  0  0  0  0  0  0  0
    0.0000    0.0000    0.0000 H   0  0  0  0  0  0  0  0  0  0  0  0
    0.0000    0.0000    0.0000 H   0  0  0  0  0  0  0  0  0  0  0  0
    0.0000    0.0000    0.0000 H   0  0  0  0  0  0  0  0  0  0  0  0
    0.0000    0.0000    0.0000 H   0  0  0  0  0  0  0  0  0  0  0  0
    0.0000    0.0000    0.0000 H   0  0  0  0  0  0  0  0  0  0  0  0
    0.0000    0.0000    0.0000 H   0  0  0  0  0  0  0  0  0  0  0  0
    0.0000    0.0000    0.0000 H   0  0  0  0  0  0  0  0  0  0  0  0
    0.0000    0.0000    0.0000 H   0  0  0  0  0  0  0  0  0  0  0  0
    0.0000    0.0000    0.0000 H   0  0  0  0  0  0  0  0  0  0  0  0
    0.0000    0.0000    0.0000 H   0  0  0  0  0  0  0  0  0  0  0  0
  4  3  2  0
  3 23  1  0
  3  2  1  0
  1  2  2  0
  5  4  1  0
  6  5  2  0
  1  6  1  0
  7 10  2  0
  6  7  1  0
  8  5  1  0
 21  8  1  1
 10  9  1  0
  8  9  2  0
 20 21  1  0
 11 20  1  0
 20 17  1  0
 16 11  1  0
 12 13  1  0
 16 13  1  0
 13 15  1  6
 16 14  1  0
 14 18  1  0
 15 19  2  3
 17 18  1  0
 21 22  1  0
 17 12  1  0
 23 24  1  0
  1 25  1  0
  2 26  1  0
  4 27  1  0
  9 28  1  0
 10 29  1  0
 11 30  1  0
 11 31  1  0
 12 32  1  0
 12 33  1  0
 13 34  1  0
 14 35  1  0
 14 36  1  0
 15 37  1  0
 16 38  1  6
 18 39  1  0
 18 40  1  0
 19 41  1  0
 19 42  1  0
 20 43  1  1
 21 44  1  0
 22 45  1  0
 24 46  1  0
 24 47  1  0
 24 48  1  0
M  END
>  <ALOGPS_LOGP>  (1) 
2.82

>  <ALOGPS_LOGS>  (1) 
-2.99

>  <ALOGPS_SOLUBILITY>  (1) 
3.34e-01 g/l

>  <DATABASE_ID>  (1) 
DB00468

>  <DATABASE_NAME>  (1) 
drugbank

>  <DRUGBANK_ID>  (1) 
DB00468

>  <DRUG_GROUPS>  (1) 
approved

>  <EXACT_MASS>  (1) 
324.183778022

>  <FORMULA>  (1) 
C20H24N2O2

>  <GENERIC_NAME>  (1) 
Quinine

>  <INCHI_IDENTIFIER>  (1) 
InChI=1S/C20H24N2O2/c1-3-13-12-22-9-7-14(13)10-19(22)20(23)16-6-8-21-18-5-4-15(24-2)11-17(16)18/h3-6,8,11,13-14,19-20,23H,1,7,9-10,12H2,2H3/t13-,14-,19-,20+/m0/s1

>  <INCHI_KEY>  (1) 
LOUPRKONTZGTKE-WZBLMQSHSA-N

>  <INTERNATIONAL_BRANDS>  (1) 
Cinkona; Jasoquin; QSM; Quinlup; Qutil; Sulquin

>  <JCHEM_ACCEPTOR_COUNT>  (1) 
4

>  <JCHEM_AVERAGE_POLARIZABILITY>  (1) 
35.95718757326015

>  <JCHEM_BIOAVAILABILITY>  (1) 
1

>  <JCHEM_DONOR_COUNT>  (1) 
1

>  <JCHEM_FORMAL_CHARGE>  (1) 
0

>  <JCHEM_GHOSE_FILTER>  (1) 
1

>  <JCHEM_IUPAC>  (1) 
(R)-[(1S,2S,4S,5R)-5-ethenyl-1-azabicyclo[2.2.2]octan-2-yl](6-methoxyquinolin-4-yl)methanol

>  <JCHEM_LOGP>  (1) 
2.513463950666668

>  <JCHEM_MDDR_LIKE_RULE>  (1) 
0

>  <JCHEM_NUMBER_OF_RINGS>  (1) 
4

>  <JCHEM_PHYSIOLOGICAL_CHARGE>  (1) 
1

>  <JCHEM_PKA_STRONGEST_ACIDIC>  (1) 
13.892048067691277

>  <JCHEM_PKA_STRONGEST_BASIC>  (1) 
9.045547511829293

>  <JCHEM_POLAR_SURFACE_AREA>  (1) 
45.59

>  <JCHEM_REFRACTIVITY>  (1) 
94.6936

>  <JCHEM_ROTATABLE_BOND_COUNT>  (1) 
4

>  <JCHEM_RULE_OF_FIVE>  (1) 
1

>  <JCHEM_TRADITIONAL_IUPAC>  (1) 
quinine

>  <JCHEM_VEBER_RULE>  (1) 
0

>  <MOLECULAR_WEIGHT>  (1) 
324.4168

>  <PRODUCTS>  (1) 
Apo-quinine Capsules; Jamp-quinine; Pro-quinine - 200; Pro-quinine - 300; Qualaquin; Quinine - Odan; Quinine Sulfate; Quinine Sulfate Cap 200mg; Quinine Sulfate Cap 300mg; Quinine Sulfate Capsules 200mg; Quinine Sulfate Capsules 300mg; Teva-quinine

>  <SALTS>  (1) 
Quinine citrate; Quinine Hydrochloride; Quinine phosphate; Quinine sulfate

>  <SECONDARY_ACCESSION_NUMBERS>  (1) 
APRD00563

>  <SMILES>  (1) 
[H][C@]1(C[C@@H]2CC[N@]1C[C@@H]2C=C)[C@H](O)C1=CC=NC2=CC=C(OC)C=C12

>  <SYNONYMS>  (1) 
6'-Methoxycinchonidine; Chinin; Chininum; Quinine

$$$$
