421
     RDKit          2D

 61 65  0  0  1  0  0  0  0  0999 V2000
    3.0788   -0.3101    0.0000 S   0  0  0  0  0  0  0  0  0  0  0  0
    5.9017   -2.2620    0.0000 O   0  0  0  0  0  0  0  0  0  0  0  0
    7.0427   -3.1892    0.0000 O   0  0  0  0  0  0  0  0  0  0  0  0
    5.2976    3.5672    0.0000 O   0  0  0  0  0  0  0  0  0  0  0  0
    2.3501    0.9190    0.0000 O   0  0  0  0  0  0  0  0  0  0  0  0
    5.2537   -1.5451    0.0000 C   0  0  0  0  0  0  0  0  0  0  0  0
    4.5392   -1.1326    0.0000 C   0  0  0  0  0  0  0  0  0  0  0  0
    4.5392   -0.3076    0.0000 C   0  0  0  0  0  0  0  0  0  0  0  0
    5.0811   -2.3468    0.0000 C   0  0  0  0  0  0  0  0  0  0  0  0
    5.2537    0.1049    0.0000 C   0  0  0  0  0  0  0  0  0  0  0  0
    5.9682   -1.1326    0.0000 C   0  0  0  0  0  0  0  0  0  0  0  0
    3.9312   -1.6829    0.0000 C   0  0  0  0  0  0  0  0  0  0  0  0
    5.2670    0.9642    0.0000 C   0  0  0  0  0  0  0  0  0  0  0  0
    5.9682   -0.3076    0.0000 C   0  0  0  0  0  0  0  0  0  0  0  0
    4.2654   -2.4319    0.0000 C   0  0  0  0  0  0  0  0  0  0  0  0
    3.7885    0.1106    0.0000 C   0  0  0  0  0  0  0  0  0  0  0  0
    6.0662   -1.6884    0.0000 C   0  0  0  0  0  0  0  0  0  0  0  0
    4.9082   -3.1535    0.0000 C   0  0  0  0  0  0  0  0  0  0  0  0
    4.5261    1.3996    0.0000 C   0  0  0  0  0  0  0  0  0  0  0  0
    3.7819    0.9699    0.0000 C   0  0  0  0  0  0  0  0  0  0  0  0
    6.0523    1.3937    0.0000 C   0  0  0  0  0  0  0  0  0  0  0  0
    5.9783    0.5462    0.0000 C   0  0  0  0  0  0  0  0  0  0  0  0
    5.6220   -3.5672    0.0000 C   0  0  0  0  0  0  0  0  0  0  0  0
    6.2360   -3.0163    0.0000 C   0  0  0  0  0  0  0  0  0  0  0  0
    6.0661    2.2887    0.0000 C   0  0  0  0  0  0  0  0  0  0  0  0
    4.5192    2.2947    0.0000 C   0  0  0  0  0  0  0  0  0  0  0  0
    5.2944    2.7422    0.0000 C   0  0  0  0  0  0  0  0  0  0  0  0
    2.3597    0.0941    0.0000 C   0  0  0  0  0  0  0  0  0  0  0  0
    1.6500   -0.3267    0.0000 C   0  0  0  0  0  0  0  0  0  0  0  0
    0.0000    0.0000    0.0000 H   0  0  0  0  0  0  0  0  0  0  0  0
    0.0000    0.0000    0.0000 H   0  0  0  0  0  0  0  0  0  0  0  0
    0.0000    0.0000    0.0000 H   0  0  0  0  0  0  0  0  0  0  0  0
    0.0000    0.0000    0.0000 H   0  0  0  0  0  0  0  0  0  0  0  0
    0.0000    0.0000    0.0000 H   0  0  0  0  0  0  0  0  0  0  0  0
    0.0000    0.0000    0.0000 H   0  0  0  0  0  0  0  0  0  0  0  0
    0.0000    0.0000    0.0000 H   0  0  0  0  0  0  0  0  0  0  0  0
    0.0000    0.0000    0.0000 H   0  0  0  0  0  0  0  0  0  0  0  0
    0.0000    0.0000    0.0000 H   0  0  0  0  0  0  0  0  0  0  0  0
    0.0000    0.0000    0.0000 H   0  0  0  0  0  0  0  0  0  0  0  0
    0.0000    0.0000    0.0000 H   0  0  0  0  0  0  0  0  0  0  0  0
    0.0000    0.0000    0.0000 H   0  0  0  0  0  0  0  0  0  0  0  0
    0.0000    0.0000    0.0000 H   0  0  0  0  0  0  0  0  0  0  0  0
    0.0000    0.0000    0.0000 H   0  0  0  0  0  0  0  0  0  0  0  0
    0.0000    0.0000    0.0000 H   0  0  0  0  0  0  0  0  0  0  0  0
    0.0000    0.0000    0.0000 H   0  0  0  0  0  0  0  0  0  0  0  0
    0.0000    0.0000    0.0000 H   0  0  0  0  0  0  0  0  0  0  0  0
    0.0000    0.0000    0.0000 H   0  0  0  0  0  0  0  0  0  0  0  0
    0.0000    0.0000    0.0000 H   0  0  0  0  0  0  0  0  0  0  0  0
    0.0000    0.0000    0.0000 H   0  0  0  0  0  0  0  0  0  0  0  0
    0.0000    0.0000    0.0000 H   0  0  0  0  0  0  0  0  0  0  0  0
    0.0000    0.0000    0.0000 H   0  0  0  0  0  0  0  0  0  0  0  0
    0.0000    0.0000    0.0000 H   0  0  0  0  0  0  0  0  0  0  0  0
    0.0000    0.0000    0.0000 H   0  0  0  0  0  0  0  0  0  0  0  0
    0.0000    0.0000    0.0000 H   0  0  0  0  0  0  0  0  0  0  0  0
    0.0000    0.0000    0.0000 H   0  0  0  0  0  0  0  0  0  0  0  0
    0.0000    0.0000    0.0000 H   0  0  0  0  0  0  0  0  0  0  0  0
    0.0000    0.0000    0.0000 H   0  0  0  0  0  0  0  0  0  0  0  0
    0.0000    0.0000    0.0000 H   0  0  0  0  0  0  0  0  0  0  0  0
    0.0000    0.0000    0.0000 H   0  0  0  0  0  0  0  0  0  0  0  0
    0.0000    0.0000    0.0000 H   0  0  0  0  0  0  0  0  0  0  0  0
    0.0000    0.0000    0.0000 H   0  0  0  0  0  0  0  0  0  0  0  0
 16  1  1  6
  1 28  1  0
  9  2  1  1
  2 24  1  0
  3 24  2  0
  4 27  2  0
  5 28  2  0
  6  7  1  0
  6  9  1  0
  6 11  1  0
  6 17  1  1
  7  8  1  0
  7 12  1  0
  8 10  1  0
  8 16  1  0
  9 15  1  0
  9 18  1  0
 10 13  1  0
 10 14  1  0
 11 14  1  0
 12 15  1  0
 13 19  1  0
 13 21  1  0
 13 22  1  1
 16 20  1  0
 18 23  1  0
 19 20  1  0
 19 26  2  0
 21 25  1  0
 23 24  1  0
 25 27  1  0
 26 27  1  0
 28 29  1  0
  7 30  1  6
  8 31  1  1
 10 32  1  6
 11 33  1  0
 11 34  1  0
 12 35  1  0
 12 36  1  0
 14 37  1  0
 14 38  1  0
 15 39  1  0
 15 40  1  0
 16 41  1  0
 17 42  1  0
 17 43  1  0
 17 44  1  0
 18 45  1  0
 18 46  1  0
 20 47  1  0
 20 48  1  0
 21 49  1  0
 21 50  1  0
 22 51  1  0
 22 52  1  0
 22 53  1  0
 23 54  1  0
 23 55  1  0
 25 56  1  0
 25 57  1  0
 26 58  1  0
 29 59  1  0
 29 60  1  0
 29 61  1  0
M  END
>  <ALOGPS_LOGP>  (1) 
3.10

>  <ALOGPS_LOGS>  (1) 
-5.32

>  <ALOGPS_SOLUBILITY>  (1) 
1.98e-03 g/l

>  <DATABASE_ID>  (1) 
DB00421

>  <DATABASE_NAME>  (1) 
drugbank

>  <DRUGBANK_ID>  (1) 
DB00421

>  <DRUG_GROUPS>  (1) 
approved

>  <EXACT_MASS>  (1) 
416.202130202

>  <FORMULA>  (1) 
C24H32O4S

>  <GENERIC_NAME>  (1) 
Spironolactone

>  <INCHI_IDENTIFIER>  (1) 
InChI=1S/C24H32O4S/c1-14(25)29-19-13-15-12-16(26)4-8-22(15,2)17-5-9-23(3)18(21(17)19)6-10-24(23)11-7-20(27)28-24/h12,17-19,21H,4-11,13H2,1-3H3/t17-,18-,19+,21+,22-,23-,24+/m0/s1

>  <INCHI_KEY>  (1) 
LXMSZDCAJNLERA-ZHYRCANASA-N

>  <INTERNATIONAL_BRANDS>  (1) 
Osyrol; Spiresis; Spiretic; Spiroctan; Uractone; Verospiron; Xenalon

>  <JCHEM_ACCEPTOR_COUNT>  (1) 
3

>  <JCHEM_AVERAGE_POLARIZABILITY>  (1) 
46.03434296313123

>  <JCHEM_BIOAVAILABILITY>  (1) 
1

>  <JCHEM_DONOR_COUNT>  (1) 
0

>  <JCHEM_FORMAL_CHARGE>  (1) 
0

>  <JCHEM_GHOSE_FILTER>  (1) 
1

>  <JCHEM_IUPAC>  (1) 
(1'S,2R,2'R,9'R,10'R,11'S,15'S)-9'-(acetylsulfanyl)-2',15'-dimethylspiro[oxolane-2,14'-tetracyclo[8.7.0.0²,⁷.0¹¹,¹⁵]heptadecan]-6'-ene-5,5'-dione

>  <JCHEM_LOGP>  (1) 
3.6367545773333334

>  <JCHEM_MDDR_LIKE_RULE>  (1) 
0

>  <JCHEM_NUMBER_OF_RINGS>  (1) 
5

>  <JCHEM_PHYSIOLOGICAL_CHARGE>  (1) 
0

>  <JCHEM_PKA_STRONGEST_ACIDIC>  (1) 
18.00608572652376

>  <JCHEM_PKA_STRONGEST_BASIC>  (1) 
-4.881649136089588

>  <JCHEM_POLAR_SURFACE_AREA>  (1) 
60.440000000000005

>  <JCHEM_REFRACTIVITY>  (1) 
113.50429999999999

>  <JCHEM_ROTATABLE_BOND_COUNT>  (1) 
2

>  <JCHEM_RULE_OF_FIVE>  (1) 
1

>  <JCHEM_TRADITIONAL_IUPAC>  (1) 
spironolactone

>  <JCHEM_VEBER_RULE>  (1) 
0

>  <MOLECULAR_WEIGHT>  (1) 
416.573

>  <PRODUCTS>  (1) 
Aldactazide; Aldactazide 25; Aldactazide 50; Aldactone; Aldactone 100 mg; Aldactone 25 mg; Apo-spirozide Tab; CaroSpir; Ntp-spironolactone; Spironolactone; Spironolactone and Hydrochlorothiazide; Teva-spironolactone; Teva-spironolactone/hctz

>  <SECONDARY_ACCESSION_NUMBERS>  (1) 
APRD01234

>  <SMILES>  (1) 
[H][C@@]12CC[C@@]3(CCC(=O)O3)[C@@]1(C)CC[C@@]1([H])[C@@]2([H])[C@@]([H])(CC2=CC(=O)CC[C@]12C)SC(C)=O

>  <SYNONYMS>  (1) 
Espironolactona; Spironolactone; Spironolactonum; Spironolattone

$$$$
