989
     RDKit          2D

 40 40  0  0  1  0  0  0  0  0999 V2000
    3.0791   -0.6188    0.0000 O   0  0  0  0  0  0  0  0  0  0  0  0
    3.7935   -1.8563    0.0000 O   0  0  0  0  0  0  0  0  0  0  0  0
    5.2224    2.2688    0.0000 N   0  0  0  0  0  0  0  0  0  0  0  0
    2.3645   -1.8563    0.0000 N   0  0  0  0  0  0  0  0  0  0  0  0
    4.5080    1.8563    0.0000 C   0  0  0  0  0  0  0  0  0  0  0  0
    4.5080    1.0313    0.0000 C   0  0  0  0  0  0  0  0  0  0  0  0
    3.7935    2.2688    0.0000 C   0  0  0  0  0  0  0  0  0  0  0  0
    3.7935    0.6188    0.0000 C   0  0  0  0  0  0  0  0  0  0  0  0
    5.2224    0.6188    0.0000 C   0  0  0  0  0  0  0  0  0  0  0  0
    5.2224    3.0938    0.0000 C   0  0  0  0  0  0  0  0  0  0  0  0
    5.9370    1.8563    0.0000 C   0  0  0  0  0  0  0  0  0  0  0  0
    3.7935   -0.2063    0.0000 C   0  0  0  0  0  0  0  0  0  0  0  0
    5.2224   -0.2063    0.0000 C   0  0  0  0  0  0  0  0  0  0  0  0
    4.5080   -0.6188    0.0000 C   0  0  0  0  0  0  0  0  0  0  0  0
    2.3645   -2.6813    0.0000 C   0  0  0  0  0  0  0  0  0  0  0  0
    3.0791   -1.4438    0.0000 C   0  0  0  0  0  0  0  0  0  0  0  0
    1.6500   -1.4438    0.0000 C   0  0  0  0  0  0  0  0  0  0  0  0
    1.6500   -3.0938    0.0000 C   0  0  0  0  0  0  0  0  0  0  0  0
    0.0000    0.0000    0.0000 H   0  0  0  0  0  0  0  0  0  0  0  0
    0.0000    0.0000    0.0000 H   0  0  0  0  0  0  0  0  0  0  0  0
    0.0000    0.0000    0.0000 H   0  0  0  0  0  0  0  0  0  0  0  0
    0.0000    0.0000    0.0000 H   0  0  0  0  0  0  0  0  0  0  0  0
    0.0000    0.0000    0.0000 H   0  0  0  0  0  0  0  0  0  0  0  0
    0.0000    0.0000    0.0000 H   0  0  0  0  0  0  0  0  0  0  0  0
    0.0000    0.0000    0.0000 H   0  0  0  0  0  0  0  0  0  0  0  0
    0.0000    0.0000    0.0000 H   0  0  0  0  0  0  0  0  0  0  0  0
    0.0000    0.0000    0.0000 H   0  0  0  0  0  0  0  0  0  0  0  0
    0.0000    0.0000    0.0000 H   0  0  0  0  0  0  0  0  0  0  0  0
    0.0000    0.0000    0.0000 H   0  0  0  0  0  0  0  0  0  0  0  0
    0.0000    0.0000    0.0000 H   0  0  0  0  0  0  0  0  0  0  0  0
    0.0000    0.0000    0.0000 H   0  0  0  0  0  0  0  0  0  0  0  0
    0.0000    0.0000    0.0000 H   0  0  0  0  0  0  0  0  0  0  0  0
    0.0000    0.0000    0.0000 H   0  0  0  0  0  0  0  0  0  0  0  0
    0.0000    0.0000    0.0000 H   0  0  0  0  0  0  0  0  0  0  0  0
    0.0000    0.0000    0.0000 H   0  0  0  0  0  0  0  0  0  0  0  0
    0.0000    0.0000    0.0000 H   0  0  0  0  0  0  0  0  0  0  0  0
    0.0000    0.0000    0.0000 H   0  0  0  0  0  0  0  0  0  0  0  0
    0.0000    0.0000    0.0000 H   0  0  0  0  0  0  0  0  0  0  0  0
    0.0000    0.0000    0.0000 H   0  0  0  0  0  0  0  0  0  0  0  0
    0.0000    0.0000    0.0000 H   0  0  0  0  0  0  0  0  0  0  0  0
  1 12  1  0
  1 16  1  0
  2 16  2  0
  5  3  1  1
  3 10  1  0
  3 11  1  0
  4 15  1  0
  4 16  1  0
  4 17  1  0
  5  6  1  0
  5  7  1  0
  6  8  2  0
  6  9  1  0
  8 12  1  0
  9 13  2  0
 12 14  2  0
 13 14  1  0
 15 18  1  0
  5 19  1  0
  7 20  1  0
  7 21  1  0
  7 22  1  0
  8 23  1  0
  9 24  1  0
 10 25  1  0
 10 26  1  0
 10 27  1  0
 11 28  1  0
 11 29  1  0
 11 30  1  0
 13 31  1  0
 14 32  1  0
 15 33  1  0
 15 34  1  0
 17 35  1  0
 17 36  1  0
 17 37  1  0
 18 38  1  0
 18 39  1  0
 18 40  1  0
M  END
>  <ALOGPS_LOGP>  (1) 
2.45

>  <ALOGPS_LOGS>  (1) 
-2.09

>  <ALOGPS_SOLUBILITY>  (1) 
2.04e+00 g/l

>  <DATABASE_ID>  (1) 
DB00989

>  <DATABASE_NAME>  (1) 
drugbank

>  <DRUGBANK_ID>  (1) 
DB00989

>  <DRUG_GROUPS>  (1) 
approved; investigational

>  <EXACT_MASS>  (1) 
250.168127958

>  <FORMULA>  (1) 
C14H22N2O2

>  <GENERIC_NAME>  (1) 
Rivastigmine

>  <INCHI_IDENTIFIER>  (1) 
InChI=1S/C14H22N2O2/c1-6-16(5)14(17)18-13-9-7-8-12(10-13)11(2)15(3)4/h7-11H,6H2,1-5H3/t11-/m0/s1

>  <INCHI_KEY>  (1) 
XSVMFMHYUFZWBK-NSHDSACASA-N

>  <JCHEM_ACCEPTOR_COUNT>  (1) 
2

>  <JCHEM_AVERAGE_POLARIZABILITY>  (1) 
28.533663159624247

>  <JCHEM_BIOAVAILABILITY>  (1) 
1

>  <JCHEM_DONOR_COUNT>  (1) 
0

>  <JCHEM_FORMAL_CHARGE>  (1) 
0

>  <JCHEM_GHOSE_FILTER>  (1) 
1

>  <JCHEM_IUPAC>  (1) 
3-[(1S)-1-(dimethylamino)ethyl]phenyl N-ethyl-N-methylcarbamate

>  <JCHEM_LOGP>  (1) 
2.4090931343333333

>  <JCHEM_MDDR_LIKE_RULE>  (1) 
0

>  <JCHEM_NUMBER_OF_RINGS>  (1) 
1

>  <JCHEM_PHYSIOLOGICAL_CHARGE>  (1) 
1

>  <JCHEM_PKA_STRONGEST_BASIC>  (1) 
8.885242787893237

>  <JCHEM_POLAR_SURFACE_AREA>  (1) 
32.78

>  <JCHEM_REFRACTIVITY>  (1) 
73.37060000000002

>  <JCHEM_ROTATABLE_BOND_COUNT>  (1) 
5

>  <JCHEM_RULE_OF_FIVE>  (1) 
1

>  <JCHEM_TRADITIONAL_IUPAC>  (1) 
exelon

>  <JCHEM_VEBER_RULE>  (1) 
1

>  <MOLECULAR_WEIGHT>  (1) 
250.3367

>  <PRODUCTS>  (1) 
Act Rivastigmine Patch 10; Act Rivastigmine Patch 5; Apo-rivastigmine; Auro-rivastigmine; Dom-rivastigmine; Exelon; Exelon 1.5 mg; Exelon Patch 10; Exelon Patch 15; Exelon Patch 5; Med-rivastigmine; Mint-rivastigmine; Mylan-rivastigmine; Mylan-rivastigmine Patch 10; Mylan-rivastigmine Patch 5; Nimvastid; Novo-rivastigmine; PHL-rivastigmine; PMS-rivastigmine; Prometax; Ratio-rivastigmine; Rivastigmine; Rivastigmine  1 A Pharma; Rivastigmine 3m Health Care Ltd.; Rivastigmine Actavis; Rivastigmine Sandoz; Rivastigmine Tartrate; Rivastigmine Tartrate Capsules; Rivastigmine Teva; Rivastigmine Transdermal System; Sandoz Rivastigmine; Sandoz Rivastigmine Patch 10; Sandoz Rivastigmine Patch 5

>  <SALTS>  (1) 
Rivastigmine tartrate

>  <SECONDARY_ACCESSION_NUMBERS>  (1) 
APRD00321

>  <SMILES>  (1) 
CCN(C)C(=O)OC1=CC=CC(=C1)[C@H](C)N(C)C

>  <SYNONYMS>  (1) 
(S)-3-(1-(Dimethylamino)ethyl)phenyl ethylmethylcarbamate; m-((S)-1-(Dimethylamino)ethyl)phenyl ethylmethylcarbamate

$$$$
