768
     RDKit          2D

 48 50  0  0  0  0  0  0  0  0999 V2000
    5.9086    2.5536    0.0000 O   0  0  0  0  0  0  0  0  0  0  0  0
    2.1394   -0.1297    0.0000 O   0  0  0  0  0  0  0  0  0  0  0  0
    2.5553    1.2374    0.0000 O   0  0  0  0  0  0  0  0  0  0  0  0
    4.8922   -1.7286    0.0000 N   0  0  0  0  0  0  0  0  0  0  0  0
    6.3211    0.7464    0.0000 C   0  0  0  0  0  0  0  0  0  0  0  0
    5.5778    1.1043    0.0000 C   0  0  0  0  0  0  0  0  0  0  0  0
    7.0644    1.1043    0.0000 C   0  0  0  0  0  0  0  0  0  0  0  0
    7.2480    1.9086    0.0000 C   0  0  0  0  0  0  0  0  0  0  0  0
    5.3942    1.9086    0.0000 C   0  0  0  0  0  0  0  0  0  0  0  0
    5.6066   -0.4911    0.0000 C   0  0  0  0  0  0  0  0  0  0  0  0
    6.3211   -0.0786    0.0000 C   0  0  0  0  0  0  0  0  0  0  0  0
    6.7336    2.5536    0.0000 C   0  0  0  0  0  0  0  0  0  0  0  0
    5.6066   -1.3161    0.0000 C   0  0  0  0  0  0  0  0  0  0  0  0
    4.9569    0.5102    0.0000 C   0  0  0  0  0  0  0  0  0  0  0  0
    4.1338    0.7571    0.0000 C   0  0  0  0  0  0  0  0  0  0  0  0
    7.6853    0.5102    0.0000 C   0  0  0  0  0  0  0  0  0  0  0  0
    4.5770    2.1745    0.0000 C   0  0  0  0  0  0  0  0  0  0  0  0
    8.0651    2.1745    0.0000 C   0  0  0  0  0  0  0  0  0  0  0  0
    3.9426    1.5950    0.0000 C   0  0  0  0  0  0  0  0  0  0  0  0
    3.5312    0.1937    0.0000 C   0  0  0  0  0  0  0  0  0  0  0  0
    8.5083    0.7571    0.0000 C   0  0  0  0  0  0  0  0  0  0  0  0
    8.6995    1.5949    0.0000 C   0  0  0  0  0  0  0  0  0  0  0  0
    4.8921   -2.5536    0.0000 C   0  0  0  0  0  0  0  0  0  0  0  0
    4.1776   -1.3161    0.0000 C   0  0  0  0  0  0  0  0  0  0  0  0
    2.7420    0.4338    0.0000 C   0  0  0  0  0  0  0  0  0  0  0  0
    0.0000    0.0000    0.0000 H   0  0  0  0  0  0  0  0  0  0  0  0
    0.0000    0.0000    0.0000 H   0  0  0  0  0  0  0  0  0  0  0  0
    0.0000    0.0000    0.0000 H   0  0  0  0  0  0  0  0  0  0  0  0
    0.0000    0.0000    0.0000 H   0  0  0  0  0  0  0  0  0  0  0  0
    0.0000    0.0000    0.0000 H   0  0  0  0  0  0  0  0  0  0  0  0
    0.0000    0.0000    0.0000 H   0  0  0  0  0  0  0  0  0  0  0  0
    0.0000    0.0000    0.0000 H   0  0  0  0  0  0  0  0  0  0  0  0
    0.0000    0.0000    0.0000 H   0  0  0  0  0  0  0  0  0  0  0  0
    0.0000    0.0000    0.0000 H   0  0  0  0  0  0  0  0  0  0  0  0
    0.0000    0.0000    0.0000 H   0  0  0  0  0  0  0  0  0  0  0  0
    0.0000    0.0000    0.0000 H   0  0  0  0  0  0  0  0  0  0  0  0
    0.0000    0.0000    0.0000 H   0  0  0  0  0  0  0  0  0  0  0  0
    0.0000    0.0000    0.0000 H   0  0  0  0  0  0  0  0  0  0  0  0
    0.0000    0.0000    0.0000 H   0  0  0  0  0  0  0  0  0  0  0  0
    0.0000    0.0000    0.0000 H   0  0  0  0  0  0  0  0  0  0  0  0
    0.0000    0.0000    0.0000 H   0  0  0  0  0  0  0  0  0  0  0  0
    0.0000    0.0000    0.0000 H   0  0  0  0  0  0  0  0  0  0  0  0
    0.0000    0.0000    0.0000 H   0  0  0  0  0  0  0  0  0  0  0  0
    0.0000    0.0000    0.0000 H   0  0  0  0  0  0  0  0  0  0  0  0
    0.0000    0.0000    0.0000 H   0  0  0  0  0  0  0  0  0  0  0  0
    0.0000    0.0000    0.0000 H   0  0  0  0  0  0  0  0  0  0  0  0
    0.0000    0.0000    0.0000 H   0  0  0  0  0  0  0  0  0  0  0  0
    0.0000    0.0000    0.0000 H   0  0  0  0  0  0  0  0  0  0  0  0
  1  9  1  0
  1 12  1  0
  2 25  1  0
  3 25  2  0
  4 13  1  0
  4 23  1  0
  4 24  1  0
  5  6  1  0
  5  7  1  0
  5 11  2  0
  6  9  2  0
  6 14  1  0
  7  8  2  0
  7 16  1  0
  8 12  1  0
  8 18  1  0
  9 17  1  0
 10 11  1  0
 10 13  1  0
 14 15  2  0
 15 19  1  0
 15 20  1  0
 16 21  2  0
 17 19  2  0
 18 22  2  0
 20 25  1  0
 21 22  1  0
  2 26  1  0
 10 27  1  0
 10 28  1  0
 11 29  1  0
 12 30  1  0
 12 31  1  0
 13 32  1  0
 13 33  1  0
 14 34  1  0
 16 35  1  0
 17 36  1  0
 18 37  1  0
 19 38  1  0
 20 39  1  0
 20 40  1  0
 21 41  1  0
 22 42  1  0
 23 43  1  0
 23 44  1  0
 23 45  1  0
 24 46  1  0
 24 47  1  0
 24 48  1  0
M  END
>  <ALOGPS_LOGP>  (1) 
3.99

>  <ALOGPS_LOGS>  (1) 
-4.03

>  <ALOGPS_SOLUBILITY>  (1) 
3.13e-02 g/l

>  <DATABASE_ID>  (1) 
DB00768

>  <DATABASE_NAME>  (1) 
drugbank

>  <DRUGBANK_ID>  (1) 
DB00768

>  <DRUG_GROUPS>  (1) 
approved

>  <EXACT_MASS>  (1) 
337.167793607

>  <FORMULA>  (1) 
C21H23NO3

>  <GENERIC_NAME>  (1) 
Olopatadine

>  <INCHI_IDENTIFIER>  (1) 
InChI=1S/C21H23NO3/c1-22(2)11-5-8-18-17-7-4-3-6-16(17)14-25-20-10-9-15(12-19(18)20)13-21(23)24/h3-4,6-10,12H,5,11,13-14H2,1-2H3,(H,23,24)/b18-8-

>  <INCHI_KEY>  (1) 
JBIMVDZLSHOPLA-LSCVHKIXSA-N

>  <INTERNATIONAL_BRANDS>  (1) 
Alchek; Alerchek; Allelock; Opatanol; Patanol S

>  <JCHEM_ACCEPTOR_COUNT>  (1) 
4

>  <JCHEM_AVERAGE_POLARIZABILITY>  (1) 
37.43942240395542

>  <JCHEM_BIOAVAILABILITY>  (1) 
1

>  <JCHEM_DONOR_COUNT>  (1) 
1

>  <JCHEM_FORMAL_CHARGE>  (1) 
0

>  <JCHEM_GHOSE_FILTER>  (1) 
1

>  <JCHEM_IUPAC>  (1) 
2-[(2Z)-2-[3-(dimethylamino)propylidene]-9-oxatricyclo[9.4.0.0³,⁸]pentadeca-1(15),3(8),4,6,11,13-hexaen-5-yl]acetic acid

>  <JCHEM_LOGP>  (1) 
0.7462555190677694

>  <JCHEM_MDDR_LIKE_RULE>  (1) 
0

>  <JCHEM_NUMBER_OF_RINGS>  (1) 
3

>  <JCHEM_PHYSIOLOGICAL_CHARGE>  (1) 
0

>  <JCHEM_PKA_STRONGEST_ACIDIC>  (1) 
3.7840305278312574

>  <JCHEM_PKA_STRONGEST_BASIC>  (1) 
9.760738756803887

>  <JCHEM_POLAR_SURFACE_AREA>  (1) 
49.77

>  <JCHEM_REFRACTIVITY>  (1) 
109.55240000000002

>  <JCHEM_ROTATABLE_BOND_COUNT>  (1) 
5

>  <JCHEM_RULE_OF_FIVE>  (1) 
1

>  <JCHEM_TRADITIONAL_IUPAC>  (1) 
patanol

>  <JCHEM_VEBER_RULE>  (1) 
0

>  <MOLECULAR_WEIGHT>  (1) 
337.4122

>  <PRODUCTS>  (1) 
Act Olopatadine 0.1%; Act Olopatadine 0.2%; Apo-olopatadine; Jamp-olopatadine; Mint-olopatadine; Olopatadine; Olopatadine Hydrochloride; Olopatadine Hydrochloride Nasal; Olopatadine Ophthalmic Solution; Pataday; Patanase; Patanol; Pazeo; Sandoz Olopatadine; Sandoz Olopatadine 0.2%

>  <SALTS>  (1) 
Olopatadine Hydrochloride

>  <SECONDARY_ACCESSION_NUMBERS>  (1) 
APRD00310

>  <SMILES>  (1) 
CN(C)CC\C=C1\C2=CC=CC=C2COC2=C1C=C(CC(O)=O)C=C2

>  <SYNONYMS>  (1) 
Olopatadin; Olopatadina; Olopatadine; Olopatadinum

$$$$
