191
     RDKit          2D

 26 26  0  0  0  0  0  0  0  0999 V2000
    3.7935    1.3943    0.0000 N   0  0  0  0  0  0  0  0  0  0  0  0
    3.0791    0.9818    0.0000 C   0  0  0  0  0  0  0  0  0  0  0  0
    2.3645    0.5693    0.0000 C   0  0  0  0  0  0  0  0  0  0  0  0
    2.6665    1.6962    0.0000 C   0  0  0  0  0  0  0  0  0  0  0  0
    3.4916    0.2673    0.0000 C   0  0  0  0  0  0  0  0  0  0  0  0
    2.3645   -0.2558    0.0000 C   0  0  0  0  0  0  0  0  0  0  0  0
    3.0791   -0.6683    0.0000 C   0  0  0  0  0  0  0  0  0  0  0  0
    1.6500   -0.6683    0.0000 C   0  0  0  0  0  0  0  0  0  0  0  0
    3.0791   -1.4933    0.0000 C   0  0  0  0  0  0  0  0  0  0  0  0
    1.6500   -1.4933    0.0000 C   0  0  0  0  0  0  0  0  0  0  0  0
    2.3645   -1.9058    0.0000 C   0  0  0  0  0  0  0  0  0  0  0  0
    0.0000    0.0000    0.0000 H   0  0  0  0  0  0  0  0  0  0  0  0
    0.0000    0.0000    0.0000 H   0  0  0  0  0  0  0  0  0  0  0  0
    0.0000    0.0000    0.0000 H   0  0  0  0  0  0  0  0  0  0  0  0
    0.0000    0.0000    0.0000 H   0  0  0  0  0  0  0  0  0  0  0  0
    0.0000    0.0000    0.0000 H   0  0  0  0  0  0  0  0  0  0  0  0
    0.0000    0.0000    0.0000 H   0  0  0  0  0  0  0  0  0  0  0  0
    0.0000    0.0000    0.0000 H   0  0  0  0  0  0  0  0  0  0  0  0
    0.0000    0.0000    0.0000 H   0  0  0  0  0  0  0  0  0  0  0  0
    0.0000    0.0000    0.0000 H   0  0  0  0  0  0  0  0  0  0  0  0
    0.0000    0.0000    0.0000 H   0  0  0  0  0  0  0  0  0  0  0  0
    0.0000    0.0000    0.0000 H   0  0  0  0  0  0  0  0  0  0  0  0
    0.0000    0.0000    0.0000 H   0  0  0  0  0  0  0  0  0  0  0  0
    0.0000    0.0000    0.0000 H   0  0  0  0  0  0  0  0  0  0  0  0
    0.0000    0.0000    0.0000 H   0  0  0  0  0  0  0  0  0  0  0  0
    0.0000    0.0000    0.0000 H   0  0  0  0  0  0  0  0  0  0  0  0
  1  2  1  0
  2  3  1  0
  2  4  1  0
  2  5  1  0
  3  6  1  0
  6  7  2  0
  6  8  1  0
  7  9  1  0
  8 10  2  0
  9 11  2  0
 10 11  1  0
  1 12  1  0
  1 13  1  0
  3 14  1  0
  3 15  1  0
  4 16  1  0
  4 17  1  0
  4 18  1  0
  5 19  1  0
  5 20  1  0
  5 21  1  0
  7 22  1  0
  8 23  1  0
  9 24  1  0
 10 25  1  0
 11 26  1  0
M  END
>  <ALOGPS_LOGP>  (1) 
2.32

>  <ALOGPS_LOGS>  (1) 
-2.29

>  <ALOGPS_SOLUBILITY>  (1) 
7.57e-01 g/l

>  <DATABASE_ID>  (1) 
DB00191

>  <DATABASE_NAME>  (1) 
drugbank

>  <DRUGBANK_ID>  (1) 
DB00191

>  <DRUG_GROUPS>  (1) 
approved; illicit

>  <EXACT_MASS>  (1) 
149.120449485

>  <FORMULA>  (1) 
C10H15N

>  <GENERIC_NAME>  (1) 
Phentermine

>  <INCHI_IDENTIFIER>  (1) 
InChI=1S/C10H15N/c1-10(2,11)8-9-6-4-3-5-7-9/h3-7H,8,11H2,1-2H3

>  <INCHI_KEY>  (1) 
DHHVAGZRUROJKS-UHFFFAOYSA-N

>  <INTERNATIONAL_BRANDS>  (1) 
Duromine; Fastin; Ionamin; Obenix; Phentercot; Phentride; Pro-Fast; Zantryl

>  <JCHEM_ACCEPTOR_COUNT>  (1) 
1

>  <JCHEM_AVERAGE_POLARIZABILITY>  (1) 
17.87496804528466

>  <JCHEM_BIOAVAILABILITY>  (1) 
1

>  <JCHEM_DONOR_COUNT>  (1) 
1

>  <JCHEM_FORMAL_CHARGE>  (1) 
0

>  <JCHEM_GHOSE_FILTER>  (1) 
0

>  <JCHEM_IUPAC>  (1) 
2-methyl-1-phenylpropan-2-amine

>  <JCHEM_LOGP>  (1) 
2.0848271499999997

>  <JCHEM_MDDR_LIKE_RULE>  (1) 
0

>  <JCHEM_NUMBER_OF_RINGS>  (1) 
1

>  <JCHEM_PHYSIOLOGICAL_CHARGE>  (1) 
1

>  <JCHEM_PKA_STRONGEST_BASIC>  (1) 
10.248513745149388

>  <JCHEM_POLAR_SURFACE_AREA>  (1) 
26.02

>  <JCHEM_REFRACTIVITY>  (1) 
48.34340000000002

>  <JCHEM_ROTATABLE_BOND_COUNT>  (1) 
2

>  <JCHEM_RULE_OF_FIVE>  (1) 
1

>  <JCHEM_TRADITIONAL_IUPAC>  (1) 
phentermine

>  <JCHEM_VEBER_RULE>  (1) 
1

>  <MOLECULAR_WEIGHT>  (1) 
149.2328

>  <PRODUCTS>  (1) 
Adipex-P; Fastin Cap 30mg; Ionamin; Lomaira; Phentermine; Phentermine HCl; Phentermine Hydrochloride; Phentermine Resin ER; Phentermine hydrochloride; Qsymia; Suprenza

>  <SALTS>  (1) 
Phentermine Hydrochloride

>  <SECONDARY_ACCESSION_NUMBERS>  (1) 
APRD00093

>  <SMILES>  (1) 
CC(C)(N)CC1=CC=CC=C1

>  <SYNONYMS>  (1) 
alpha,alpha-Dimethylphenethylamine; Phentermine resin

$$$$
