445
     RDKit          2D

 68 72  0  0  1  0  0  0  0  0999 V2000
    4.9345    0.4160    0.0000 O   0  0  0  0  0  0  0  0  0  0  0  0
    3.5056    0.4325    0.0000 O   0  0  0  0  0  0  0  0  0  0  0  0
    3.7677   -2.4082    0.0000 O   0  0  0  0  0  0  0  0  0  0  0  0
    2.0959    2.0989    0.0000 O   0  0  0  0  0  0  0  0  0  0  0  0
    6.3769    0.3875    0.0000 O   0  0  0  0  0  0  0  0  0  0  0  0
    6.3769   -2.9125    0.0000 O   0  0  0  0  0  0  0  0  0  0  0  0
    2.9372   -0.9825    0.0000 O   0  0  0  0  0  0  0  0  0  0  0  0
    2.1178   -2.4146    0.0000 O   0  0  0  0  0  0  0  0  0  0  0  0
    7.8193    0.4160    0.0000 O   0  0  0  0  0  0  0  0  0  0  0  0
    7.8193   -2.9410    0.0000 O   0  0  0  0  0  0  0  0  0  0  0  0
    9.3351    0.4516    0.0000 O   0  0  0  0  0  0  0  0  0  0  0  0
    3.5343    2.9074    0.0000 N   0  0  0  0  0  0  0  0  0  0  0  0
    4.9250   -0.4089    0.0000 C   0  0  0  0  0  0  0  0  0  0  0  0
    4.1774   -1.6921    0.0000 C   0  0  0  0  0  0  0  0  0  0  0  0
    4.1774   -0.8328    0.0000 C   0  0  0  0  0  0  0  0  0  0  0  0
    4.9250   -2.1161    0.0000 C   0  0  0  0  0  0  0  0  0  0  0  0
    5.6624   -0.8500    0.0000 C   0  0  0  0  0  0  0  0  0  0  0  0
    5.6624   -1.6750    0.0000 C   0  0  0  0  0  0  0  0  0  0  0  0
    4.2248    0.8368    0.0000 C   0  0  0  0  0  0  0  0  0  0  0  0
    4.2344    1.6617    0.0000 C   0  0  0  0  0  0  0  0  0  0  0  0
    3.5247    2.0824    0.0000 C   0  0  0  0  0  0  0  0  0  0  0  0
    2.8056    1.6782    0.0000 C   0  0  0  0  0  0  0  0  0  0  0  0
    2.7960    0.8533    0.0000 C   0  0  0  0  0  0  0  0  0  0  0  0
    6.3769   -0.4375    0.0000 C   0  0  0  0  0  0  0  0  0  0  0  0
    3.3524   -1.6954    0.0000 C   0  0  0  0  0  0  0  0  0  0  0  0
    6.3769   -2.0875    0.0000 C   0  0  0  0  0  0  0  0  0  0  0  0
    7.0914   -0.8500    0.0000 C   0  0  0  0  0  0  0  0  0  0  0  0
    7.0914   -1.6750    0.0000 C   0  0  0  0  0  0  0  0  0  0  0  0
    2.0768    0.4490    0.0000 C   0  0  0  0  0  0  0  0  0  0  0  0
    2.9427   -2.4114    0.0000 C   0  0  0  0  0  0  0  0  0  0  0  0
    7.8289   -0.4089    0.0000 C   0  0  0  0  0  0  0  0  0  0  0  0
    7.8289   -2.1161    0.0000 C   0  0  0  0  0  0  0  0  0  0  0  0
    8.5764   -0.8328    0.0000 C   0  0  0  0  0  0  0  0  0  0  0  0
    8.5764   -1.6921    0.0000 C   0  0  0  0  0  0  0  0  0  0  0  0
    9.3445   -0.3734    0.0000 C   0  0  0  0  0  0  0  0  0  0  0  0
    9.3445   -2.1516    0.0000 C   0  0  0  0  0  0  0  0  0  0  0  0
   10.1232   -0.8149    0.0000 C   0  0  0  0  0  0  0  0  0  0  0  0
   10.1232   -1.7100    0.0000 C   0  0  0  0  0  0  0  0  0  0  0  0
   10.0446    0.8723    0.0000 C   0  0  0  0  0  0  0  0  0  0  0  0
    0.0000    0.0000    0.0000 H   0  0  0  0  0  0  0  0  0  0  0  0
    0.0000    0.0000    0.0000 H   0  0  0  0  0  0  0  0  0  0  0  0
    0.0000    0.0000    0.0000 H   0  0  0  0  0  0  0  0  0  0  0  0
    0.0000    0.0000    0.0000 H   0  0  0  0  0  0  0  0  0  0  0  0
    0.0000    0.0000    0.0000 H   0  0  0  0  0  0  0  0  0  0  0  0
    0.0000    0.0000    0.0000 H   0  0  0  0  0  0  0  0  0  0  0  0
    0.0000    0.0000    0.0000 H   0  0  0  0  0  0  0  0  0  0  0  0
    0.0000    0.0000    0.0000 H   0  0  0  0  0  0  0  0  0  0  0  0
    0.0000    0.0000    0.0000 H   0  0  0  0  0  0  0  0  0  0  0  0
    0.0000    0.0000    0.0000 H   0  0  0  0  0  0  0  0  0  0  0  0
    0.0000    0.0000    0.0000 H   0  0  0  0  0  0  0  0  0  0  0  0
    0.0000    0.0000    0.0000 H   0  0  0  0  0  0  0  0  0  0  0  0
    0.0000    0.0000    0.0000 H   0  0  0  0  0  0  0  0  0  0  0  0
    0.0000    0.0000    0.0000 H   0  0  0  0  0  0  0  0  0  0  0  0
    0.0000    0.0000    0.0000 H   0  0  0  0  0  0  0  0  0  0  0  0
    0.0000    0.0000    0.0000 H   0  0  0  0  0  0  0  0  0  0  0  0
    0.0000    0.0000    0.0000 H   0  0  0  0  0  0  0  0  0  0  0  0
    0.0000    0.0000    0.0000 H   0  0  0  0  0  0  0  0  0  0  0  0
    0.0000    0.0000    0.0000 H   0  0  0  0  0  0  0  0  0  0  0  0
    0.0000    0.0000    0.0000 H   0  0  0  0  0  0  0  0  0  0  0  0
    0.0000    0.0000    0.0000 H   0  0  0  0  0  0  0  0  0  0  0  0
    0.0000    0.0000    0.0000 H   0  0  0  0  0  0  0  0  0  0  0  0
    0.0000    0.0000    0.0000 H   0  0  0  0  0  0  0  0  0  0  0  0
    0.0000    0.0000    0.0000 H   0  0  0  0  0  0  0  0  0  0  0  0
    0.0000    0.0000    0.0000 H   0  0  0  0  0  0  0  0  0  0  0  0
    0.0000    0.0000    0.0000 H   0  0  0  0  0  0  0  0  0  0  0  0
    0.0000    0.0000    0.0000 H   0  0  0  0  0  0  0  0  0  0  0  0
    0.0000    0.0000    0.0000 H   0  0  0  0  0  0  0  0  0  0  0  0
    0.0000    0.0000    0.0000 H   0  0  0  0  0  0  0  0  0  0  0  0
 13  1  1  6
 19  1  1  1
  2 19  1  0
  2 23  1  0
 14  3  1  6
 22  4  1  6
  5 24  1  0
  6 26  1  0
  7 25  2  0
  8 30  1  0
  9 31  2  0
 10 32  2  0
 11 35  1  0
 11 39  1  0
 21 12  1  6
 13 15  1  0
 13 17  1  0
 14 15  1  0
 14 16  1  0
 14 25  1  0
 16 18  1  0
 17 18  2  0
 17 24  1  0
 18 26  1  0
 19 20  1  0
 20 21  1  0
 21 22  1  0
 22 23  1  0
 23 29  1  1
 24 27  2  0
 25 30  1  0
 26 28  2  0
 27 28  1  0
 27 31  1  0
 28 32  1  0
 31 33  1  0
 32 34  1  0
 33 34  2  0
 33 35  1  0
 34 36  1  0
 35 37  2  0
 36 38  2  0
 37 38  1  0
  3 40  1  0
  4 41  1  0
  5 42  1  0
  6 43  1  0
  8 44  1  0
 12 45  1  0
 12 46  1  0
 13 47  1  0
 15 48  1  0
 15 49  1  0
 16 50  1  0
 16 51  1  0
 19 52  1  0
 20 53  1  0
 20 54  1  0
 21 55  1  0
 22 56  1  0
 23 57  1  0
 29 58  1  0
 29 59  1  0
 29 60  1  0
 30 61  1  0
 30 62  1  0
 36 63  1  0
 37 64  1  0
 38 65  1  0
 39 66  1  0
 39 67  1  0
 39 68  1  0
M  END
>  <ALOGPS_LOGP>  (1) 
1.41

>  <ALOGPS_LOGS>  (1) 
-2.67

>  <ALOGPS_SOLUBILITY>  (1) 
1.18e+00 g/l

>  <DATABASE_ID>  (1) 
DB00445

>  <DATABASE_NAME>  (1) 
drugbank

>  <DRUGBANK_ID>  (1) 
DB00445

>  <DRUG_GROUPS>  (1) 
approved

>  <EXACT_MASS>  (1) 
543.174060775

>  <FORMULA>  (1) 
C27H29NO11

>  <GENERIC_NAME>  (1) 
Epirubicin

>  <INCHI_IDENTIFIER>  (1) 
InChI=1S/C27H29NO11/c1-10-22(31)13(28)6-17(38-10)39-15-8-27(36,16(30)9-29)7-12-19(15)26(35)21-20(24(12)33)23(32)11-4-3-5-14(37-2)18(11)25(21)34/h3-5,10,13,15,17,22,29,31,33,35-36H,6-9,28H2,1-2H3/t10-,13-,15-,17-,22-,27-/m0/s1

>  <INCHI_KEY>  (1) 
AOJJSUZBOXZQNB-VTZDEGQISA-N

>  <INTERNATIONAL_BRANDS>  (1) 
Epirubicin Ebewe; Pharmorubicin

>  <JCHEM_ACCEPTOR_COUNT>  (1) 
12

>  <JCHEM_AVERAGE_POLARIZABILITY>  (1) 
53.88131441703695

>  <JCHEM_BIOAVAILABILITY>  (1) 
0

>  <JCHEM_DONOR_COUNT>  (1) 
6

>  <JCHEM_FORMAL_CHARGE>  (1) 
0

>  <JCHEM_GHOSE_FILTER>  (1) 
0

>  <JCHEM_IUPAC>  (1) 
(8S,10S)-10-{[(2R,4S,5R,6S)-4-amino-5-hydroxy-6-methyloxan-2-yl]oxy}-6,8,11-trihydroxy-8-(2-hydroxyacetyl)-1-methoxy-5,7,8,9,10,12-hexahydrotetracene-5,12-dione

>  <JCHEM_LOGP>  (1) 
0.9164216415385819

>  <JCHEM_MDDR_LIKE_RULE>  (1) 
0

>  <JCHEM_NUMBER_OF_RINGS>  (1) 
5

>  <JCHEM_PHYSIOLOGICAL_CHARGE>  (1) 
1

>  <JCHEM_PKA>  (1) 
11.02035317339782

>  <JCHEM_PKA_STRONGEST_ACIDIC>  (1) 
9.530879900606058

>  <JCHEM_PKA_STRONGEST_BASIC>  (1) 
8.935690197370455

>  <JCHEM_POLAR_SURFACE_AREA>  (1) 
206.07

>  <JCHEM_REFRACTIVITY>  (1) 
134.59369999999996

>  <JCHEM_ROTATABLE_BOND_COUNT>  (1) 
5

>  <JCHEM_RULE_OF_FIVE>  (1) 
0

>  <JCHEM_TRADITIONAL_IUPAC>  (1) 
epirubicin

>  <JCHEM_VEBER_RULE>  (1) 
0

>  <MOLECULAR_WEIGHT>  (1) 
543.5193

>  <PRODUCTS>  (1) 
Ellence; Epirubicin Hydrochloride; Epirubicin Hydrochloride Injection; Epirubicin Hydrochloride for Injection; Epirubicin for Injection; PMS-epirubicin; Pharmorubicin PFS; Pharmorubicin Rdf; Pharmorubicin Rdf Inj 50mg/vial

>  <SALTS>  (1) 
Epirubicin hydrochloride

>  <SECONDARY_ACCESSION_NUMBERS>  (1) 
APRD00361

>  <SMILES>  (1) 
COC1=CC=CC2=C1C(=O)C1=C(O)C3=C(C[C@](O)(C[C@@H]3O[C@H]3C[C@H](N)[C@@H](O)[C@H](C)O3)C(=O)CO)C(O)=C1C2=O

>  <SYNONYMS>  (1) 
4'-Epiadriamycin; Epiadriamycin; Epirubicina; Epirubicine; Epirubicinum; Pidorubicina; Pidorubicine; Pidorubicinum

$$$$
