 
     RDKit          2D

 48 50  0  0  1  0  0  0  0  0999 V2000
   23.7336  -10.8039    0.0000 Br  0  0  0  0  0  0  0  0  0  0  0  0
   16.6062  -10.3318    0.0000 C   0  0  0  0  0  0  0  0  0  0  0  0
   16.2297  -10.9592    0.0000 C   0  0  0  0  0  0  0  0  0  0  0  0
   17.1500  -10.1227    0.0000 C   0  0  0  0  0  0  0  0  0  0  0  0
   15.6859  -10.3318    0.0000 O   0  0  0  0  0  0  0  0  0  0  0  0
   17.0245  -10.6664    0.0000 C   0  0  0  0  0  0  0  0  0  0  0  0
   16.5643   -9.4952    0.0000 N   0  0  0  0  0  0  0  0  0  0  0  0
   18.0284  -10.1227    0.0000 C   0  0  0  0  0  0  0  0  0  0  0  0
   17.9865  -10.6664    0.0000 C   0  0  0  0  0  0  0  0  0  0  0  0
   16.7735   -8.7423    0.0000 C   0  0  0  0  0  0  0  0  0  0  0  0
   15.8114   -9.0769    0.0000 C   0  0  0  0  0  0  0  0  0  0  0  0
   18.7813  -11.0011    0.0000 C   0  0  0  0  0  0  0  0  0  0  0  0
   19.3669  -11.4612    0.0000 O   0  0  0  0  0  0  0  0  0  0  0  0
   20.2035  -11.4612    0.0000 C   0  0  0  0  0  0  0  0  0  0  0  0
   20.5799  -12.1723    0.0000 O   0  0  0  0  0  0  0  0  0  0  0  0
   20.5799  -10.7919    0.0000 C   0  0  0  0  0  0  0  0  0  0  0  0
   21.3747  -10.7919    0.0000 C   0  0  0  0  0  0  0  0  0  0  0  0
   20.2035  -10.0808    0.0000 C   0  0  0  0  0  0  0  0  0  0  0  0
   20.5799   -9.3697    0.0000 O   0  0  0  0  0  0  0  0  0  0  0  0
   21.7930  -11.5030    0.0000 C   0  0  0  0  0  0  0  0  0  0  0  0
   22.5877  -11.5030    0.0000 C   0  0  0  0  0  0  0  0  0  0  0  0
   23.0060  -10.7919    0.0000 C   0  0  0  0  0  0  0  0  0  0  0  0
   22.5877  -10.0808    0.0000 C   0  0  0  0  0  0  0  0  0  0  0  0
   21.7930  -10.0808    0.0000 C   0  0  0  0  0  0  0  0  0  0  0  0
    0.0000    0.0000    0.0000 H   0  0  0  0  0  0  0  0  0  0  0  0
    0.0000    0.0000    0.0000 H   0  0  0  0  0  0  0  0  0  0  0  0
    0.0000    0.0000    0.0000 H   0  0  0  0  0  0  0  0  0  0  0  0
    0.0000    0.0000    0.0000 H   0  0  0  0  0  0  0  0  0  0  0  0
    0.0000    0.0000    0.0000 H   0  0  0  0  0  0  0  0  0  0  0  0
    0.0000    0.0000    0.0000 H   0  0  0  0  0  0  0  0  0  0  0  0
    0.0000    0.0000    0.0000 H   0  0  0  0  0  0  0  0  0  0  0  0
    0.0000    0.0000    0.0000 H   0  0  0  0  0  0  0  0  0  0  0  0
    0.0000    0.0000    0.0000 H   0  0  0  0  0  0  0  0  0  0  0  0
    0.0000    0.0000    0.0000 H   0  0  0  0  0  0  0  0  0  0  0  0
    0.0000    0.0000    0.0000 H   0  0  0  0  0  0  0  0  0  0  0  0
    0.0000    0.0000    0.0000 H   0  0  0  0  0  0  0  0  0  0  0  0
    0.0000    0.0000    0.0000 H   0  0  0  0  0  0  0  0  0  0  0  0
    0.0000    0.0000    0.0000 H   0  0  0  0  0  0  0  0  0  0  0  0
    0.0000    0.0000    0.0000 H   0  0  0  0  0  0  0  0  0  0  0  0
    0.0000    0.0000    0.0000 H   0  0  0  0  0  0  0  0  0  0  0  0
    0.0000    0.0000    0.0000 H   0  0  0  0  0  0  0  0  0  0  0  0
    0.0000    0.0000    0.0000 H   0  0  0  0  0  0  0  0  0  0  0  0
    0.0000    0.0000    0.0000 H   0  0  0  0  0  0  0  0  0  0  0  0
    0.0000    0.0000    0.0000 H   0  0  0  0  0  0  0  0  0  0  0  0
    0.0000    0.0000    0.0000 H   0  0  0  0  0  0  0  0  0  0  0  0
    0.0000    0.0000    0.0000 H   0  0  0  0  0  0  0  0  0  0  0  0
    0.0000    0.0000    0.0000 H   0  0  0  0  0  0  0  0  0  0  0  0
    0.0000    0.0000    0.0000 H   0  0  0  0  0  0  0  0  0  0  0  0
  2  3  1  0
  2  4  1  0
  2  5  1  0
  3  6  1  0
  4  7  1  0
  4  8  1  0
  6  9  1  0
  7 10  1  0
  7 11  1  0
  8 12  1  0
 12 13  1  0
  3  5  1  0
  6  7  1  0
  9 12  1  0
 13 14  1  0
 14 15  2  0
 16 14  1  6
 16 17  1  0
 16 18  1  0
 18 19  1  0
 17 20  2  0
 20 21  1  0
 21 22  2  0
 22 23  1  0
 23 24  2  0
 17 24  1  0
  2 25  1  0
  3 26  1  0
  4 27  1  6
  6 28  1  6
  8 29  1  0
  8 30  1  0
  9 31  1  0
  9 32  1  0
 10 33  1  0
 10 34  1  0
 10 35  1  0
 11 36  1  0
 11 37  1  0
 11 38  1  0
 12 39  1  0
 16 40  1  0
 18 41  1  0
 18 42  1  0
 19 43  1  0
 20 44  1  0
 21 45  1  0
 22 46  1  0
 23 47  1  0
 24 48  1  0
M  CHG  2   1  -1   7   1
M  END
>  <ALOGPS_LOGP>  (1) 
-1.96

>  <ALOGPS_LOGS>  (1) 
-4.48

>  <ALOGPS_SOLUBILITY>  (1) 
1.32e-02 g/l

>  <DATABASE_ID>  (1) 
DB00462

>  <DATABASE_NAME>  (1) 
drugbank

>  <DRUGBANK_ID>  (1) 
DB00462

>  <DRUG_GROUPS>  (1) 
approved

>  <EXACT_MASS>  (1) 
397.088870908

>  <FORMULA>  (1) 
C18H24BrNO4

>  <GENERIC_NAME>  (1) 
Methylscopolamine bromide

>  <INCHI_IDENTIFIER>  (1) 
InChI=1S/C18H24NO4.BrH/c1-19(2)14-8-12(9-15(19)17-16(14)23-17)22-18(21)13(10-20)11-6-4-3-5-7-11;/h3-7,12-17,20H,8-10H2,1-2H3;1H/q+1;/p-1/t12?,13-,14+,15+,16?,17?;/m1./s1

>  <INCHI_KEY>  (1) 
CXYRUNPLKGGUJF-JIRGPDKYSA-M

>  <JCHEM_ACCEPTOR_COUNT>  (1) 
3

>  <JCHEM_AVERAGE_POLARIZABILITY>  (1) 
48.11766653721443

>  <JCHEM_BIOAVAILABILITY>  (1) 
1

>  <JCHEM_DONOR_COUNT>  (1) 
1

>  <JCHEM_FORMAL_CHARGE>  (1) 
0

>  <JCHEM_GHOSE_FILTER>  (1) 
0

>  <JCHEM_IUPAC>  (1) 
(1S,5S)-7-{[(2S)-3-hydroxy-2-phenylpropanoyl]oxy}-9,9-dimethyl-3-oxa-9-azatricyclo[3.3.1.0²,⁴]nonan-9-ium bromide

>  <JCHEM_LOGP>  (1) 
-3.267384321471746

>  <JCHEM_MDDR_LIKE_RULE>  (1) 
0

>  <JCHEM_NUMBER_OF_RINGS>  (1) 
4

>  <JCHEM_PHYSIOLOGICAL_CHARGE>  (1) 
1

>  <JCHEM_PKA_STRONGEST_ACIDIC>  (1) 
15.145739794476054

>  <JCHEM_PKA_STRONGEST_BASIC>  (1) 
-2.735053413896173

>  <JCHEM_POLAR_SURFACE_AREA>  (1) 
55.760000000000005

>  <JCHEM_REFRACTIVITY>  (1) 
95.63490000000002

>  <JCHEM_ROTATABLE_BOND_COUNT>  (1) 
5

>  <JCHEM_RULE_OF_FIVE>  (1) 
1

>  <JCHEM_TRADITIONAL_IUPAC>  (1) 
(1S,5S)-7-{[(2S)-3-hydroxy-2-phenylpropanoyl]oxy}-9,9-dimethyl-3-oxa-9-azatricyclo[3.3.1.0²,⁴]nonan-9-ium bromide

>  <JCHEM_VEBER_RULE>  (1) 
0

>  <MOLECULAR_WEIGHT>  (1) 
398.291

>  <PRODUCTS>  (1) 
Methscopolamine; Methscopolamine Bromide; Pamine; Pamine Forte

>  <SECONDARY_ACCESSION_NUMBERS>  (1) 
APRD00314

>  <SMILES>  (1) 
[Br-].[H][C@]12C[C@@H](C[C@@]([H])(C3OC13)[N+]2(C)C)OC(=O)[C@H](CO)C1=CC=CC=C1

>  <SYNONYMS>  (1) 
(−)-scopolamine methobromide; (−)-scopolamine methyl bromide; Hyoscine Methobromide; Hyoscine methyl bromide; Methscopolamine bromide; N-methylhyoscine bromide; N-methylscopolammonium bromide; Scopolamine Methobromide; Scopolamine methyl bromide

$$$$
