443
     RDKit          2D

 57 60  0  0  1  0  0  0  0  0999 V2000
    4.1400   -0.1892    0.0000 F   0  0  0  0  0  0  0  0  0  0  0  0
    6.6263    1.0402    0.0000 O   0  0  0  0  0  0  0  0  0  0  0  0
    3.9559    0.4163    0.0000 O   0  0  0  0  0  0  0  0  0  0  0  0
    8.3013    0.4021    0.0000 O   0  0  0  0  0  0  0  0  0  0  0  0
    8.1317    2.0434    0.0000 O   0  0  0  0  0  0  0  0  0  0  0  0
    1.6500   -2.5144    0.0000 O   0  0  0  0  0  0  0  0  0  0  0  0
    6.0993    0.0038    0.0000 C   0  0  0  0  0  0  0  0  0  0  0  0
    6.0993   -0.8212    0.0000 C   0  0  0  0  0  0  0  0  0  0  0  0
    5.3849   -1.2337    0.0000 C   0  0  0  0  0  0  0  0  0  0  0  0
    4.6703   -0.8212    0.0000 C   0  0  0  0  0  0  0  0  0  0  0  0
    6.8799    0.2553    0.0000 C   0  0  0  0  0  0  0  0  0  0  0  0
    6.8799   -1.0726    0.0000 C   0  0  0  0  0  0  0  0  0  0  0  0
    5.3849    0.4163    0.0000 C   0  0  0  0  0  0  0  0  0  0  0  0
    7.3614   -0.4087    0.0000 C   0  0  0  0  0  0  0  0  0  0  0  0
    4.6703    0.0038    0.0000 C   0  0  0  0  0  0  0  0  0  0  0  0
    3.9196   -1.2393    0.0000 C   0  0  0  0  0  0  0  0  0  0  0  0
    5.3981   -2.0929    0.0000 C   0  0  0  0  0  0  0  0  0  0  0  0
    6.0993    0.8288    0.0000 C   0  0  0  0  0  0  0  0  0  0  0  0
    4.6572   -2.5283    0.0000 C   0  0  0  0  0  0  0  0  0  0  0  0
    3.9130   -2.0986    0.0000 C   0  0  0  0  0  0  0  0  0  0  0  0
    7.5482    0.7390    0.0000 C   0  0  0  0  0  0  0  0  0  0  0  0
    8.1864   -0.4087    0.0000 C   0  0  0  0  0  0  0  0  0  0  0  0
    3.6435   -0.4619    0.0000 C   0  0  0  0  0  0  0  0  0  0  0  0
    3.1550   -0.7739    0.0000 C   0  0  0  0  0  0  0  0  0  0  0  0
    3.1413   -2.5521    0.0000 C   0  0  0  0  0  0  0  0  0  0  0  0
    7.4634    1.5596    0.0000 C   0  0  0  0  0  0  0  0  0  0  0  0
    2.3730   -1.2095    0.0000 C   0  0  0  0  0  0  0  0  0  0  0  0
    2.3660   -2.1046    0.0000 C   0  0  0  0  0  0  0  0  0  0  0  0
    0.0000    0.0000    0.0000 H   0  0  0  0  0  0  0  0  0  0  0  0
    0.0000    0.0000    0.0000 H   0  0  0  0  0  0  0  0  0  0  0  0
    0.0000    0.0000    0.0000 H   0  0  0  0  0  0  0  0  0  0  0  0
    0.0000    0.0000    0.0000 H   0  0  0  0  0  0  0  0  0  0  0  0
    0.0000    0.0000    0.0000 H   0  0  0  0  0  0  0  0  0  0  0  0
    0.0000    0.0000    0.0000 H   0  0  0  0  0  0  0  0  0  0  0  0
    0.0000    0.0000    0.0000 H   0  0  0  0  0  0  0  0  0  0  0  0
    0.0000    0.0000    0.0000 H   0  0  0  0  0  0  0  0  0  0  0  0
    0.0000    0.0000    0.0000 H   0  0  0  0  0  0  0  0  0  0  0  0
    0.0000    0.0000    0.0000 H   0  0  0  0  0  0  0  0  0  0  0  0
    0.0000    0.0000    0.0000 H   0  0  0  0  0  0  0  0  0  0  0  0
    0.0000    0.0000    0.0000 H   0  0  0  0  0  0  0  0  0  0  0  0
    0.0000    0.0000    0.0000 H   0  0  0  0  0  0  0  0  0  0  0  0
    0.0000    0.0000    0.0000 H   0  0  0  0  0  0  0  0  0  0  0  0
    0.0000    0.0000    0.0000 H   0  0  0  0  0  0  0  0  0  0  0  0
    0.0000    0.0000    0.0000 H   0  0  0  0  0  0  0  0  0  0  0  0
    0.0000    0.0000    0.0000 H   0  0  0  0  0  0  0  0  0  0  0  0
    0.0000    0.0000    0.0000 H   0  0  0  0  0  0  0  0  0  0  0  0
    0.0000    0.0000    0.0000 H   0  0  0  0  0  0  0  0  0  0  0  0
    0.0000    0.0000    0.0000 H   0  0  0  0  0  0  0  0  0  0  0  0
    0.0000    0.0000    0.0000 H   0  0  0  0  0  0  0  0  0  0  0  0
    0.0000    0.0000    0.0000 H   0  0  0  0  0  0  0  0  0  0  0  0
    0.0000    0.0000    0.0000 H   0  0  0  0  0  0  0  0  0  0  0  0
    0.0000    0.0000    0.0000 H   0  0  0  0  0  0  0  0  0  0  0  0
    0.0000    0.0000    0.0000 H   0  0  0  0  0  0  0  0  0  0  0  0
    0.0000    0.0000    0.0000 H   0  0  0  0  0  0  0  0  0  0  0  0
    0.0000    0.0000    0.0000 H   0  0  0  0  0  0  0  0  0  0  0  0
    0.0000    0.0000    0.0000 H   0  0  0  0  0  0  0  0  0  0  0  0
    0.0000    0.0000    0.0000 H   0  0  0  0  0  0  0  0  0  0  0  0
 10  1  1  6
 11  2  1  6
 15  3  1  1
  4 21  2  0
  5 26  1  0
  6 28  2  0
  7  8  1  0
  7 11  1  0
  7 13  1  0
  7 18  1  1
  8  9  1  0
  8 12  1  0
  9 10  1  0
  9 17  1  0
 10 15  1  0
 10 16  1  0
 11 14  1  0
 11 21  1  0
 12 14  1  0
 13 15  1  0
 14 22  1  6
 16 20  1  0
 16 23  1  1
 16 24  1  0
 17 19  1  0
 19 20  1  0
 20 25  2  0
 21 26  1  0
 24 27  2  0
 25 28  1  0
 27 28  1  0
  2 29  1  0
  3 30  1  0
  5 31  1  0
  8 32  1  6
  9 33  1  1
 12 34  1  0
 12 35  1  0
 13 36  1  0
 13 37  1  0
 14 38  1  0
 15 39  1  0
 17 40  1  0
 17 41  1  0
 18 42  1  0
 18 43  1  0
 18 44  1  0
 19 45  1  0
 19 46  1  0
 22 47  1  0
 22 48  1  0
 22 49  1  0
 23 50  1  0
 23 51  1  0
 23 52  1  0
 24 53  1  0
 25 54  1  0
 26 55  1  0
 26 56  1  0
 27 57  1  0
M  END
>  <ALOGPS_LOGP>  (1) 
1.93

>  <ALOGPS_LOGS>  (1) 
-3.89

>  <ALOGPS_SOLUBILITY>  (1) 
5.05e-02 g/l

>  <DATABASE_ID>  (1) 
DB00443

>  <DATABASE_NAME>  (1) 
drugbank

>  <DRUGBANK_ID>  (1) 
DB00443

>  <DRUG_GROUPS>  (1) 
approved; vet_approved

>  <EXACT_MASS>  (1) 
392.199902243

>  <FORMULA>  (1) 
C22H29FO5

>  <GENERIC_NAME>  (1) 
Betamethasone

>  <INCHI_IDENTIFIER>  (1) 
InChI=1S/C22H29FO5/c1-12-8-16-15-5-4-13-9-14(25)6-7-19(13,2)21(15,23)17(26)10-20(16,3)22(12,28)18(27)11-24/h6-7,9,12,15-17,24,26,28H,4-5,8,10-11H2,1-3H3/t12-,15-,16-,17-,19-,20-,21-,22-/m0/s1

>  <INCHI_KEY>  (1) 
UREBDLICKHMUKA-DVTGEIKXSA-N

>  <INTERNATIONAL_BRANDS>  (1) 
Bentelan; Betnovate; Celestamine; Celestone; Diprosone; Fucibet; Procort; Rinderon

>  <JCHEM_ACCEPTOR_COUNT>  (1) 
5

>  <JCHEM_AVERAGE_POLARIZABILITY>  (1) 
40.877492310633286

>  <JCHEM_BIOAVAILABILITY>  (1) 
1

>  <JCHEM_DONOR_COUNT>  (1) 
3

>  <JCHEM_FORMAL_CHARGE>  (1) 
0

>  <JCHEM_GHOSE_FILTER>  (1) 
1

>  <JCHEM_IUPAC>  (1) 
(1R,2S,10S,11S,13S,14R,15S,17S)-1-fluoro-14,17-dihydroxy-14-(2-hydroxyacetyl)-2,13,15-trimethyltetracyclo[8.7.0.0²,⁷.0¹¹,¹⁵]heptadeca-3,6-dien-5-one

>  <JCHEM_LOGP>  (1) 
1.6815696796666673

>  <JCHEM_MDDR_LIKE_RULE>  (1) 
0

>  <JCHEM_NUMBER_OF_RINGS>  (1) 
4

>  <JCHEM_PHYSIOLOGICAL_CHARGE>  (1) 
0

>  <JCHEM_PKA>  (1) 
13.479946732889243

>  <JCHEM_PKA_STRONGEST_ACIDIC>  (1) 
12.42373529494919

>  <JCHEM_PKA_STRONGEST_BASIC>  (1) 
-3.330175673865819

>  <JCHEM_POLAR_SURFACE_AREA>  (1) 
94.83000000000001

>  <JCHEM_REFRACTIVITY>  (1) 
102.49289999999998

>  <JCHEM_ROTATABLE_BOND_COUNT>  (1) 
2

>  <JCHEM_RULE_OF_FIVE>  (1) 
1

>  <JCHEM_TRADITIONAL_IUPAC>  (1) 
betamethasone

>  <JCHEM_VEBER_RULE>  (1) 
0

>  <MOLECULAR_WEIGHT>  (1) 
392.4611

>  <PRODUCTS>  (1) 
Beben Gel 0.025%; Betacort Scalp Lotion 0.1%; Betaderm Crm 0.05%; Betaderm Crm 0.1%; Betaderm Lotion 0.1%; Betaderm Ont 0.05%; Betaderm Ont 0.1%; Betagel - 0.1%; Betaject; Betaloan SUIK; Betamethasone; Betamethasone Clotrimazole; Betamethasone Combo 6mg/mL PF; Betamethasone Combo 7mg/mL; Betamethasone Dipropionate; Betamethasone Dipropionate Augmented; Betamethasone SP 24mg/2mL PF; Betamethasone Sodium Phosphate and Betamethasone Acetate; Betamethasone Valerate; Betamethasone Valerate Lot 0.1% USP; Betamycin Ophthalmic/otic Solution; Betaprolene Cream 0.05%; Betaprolene Ointment 0.05%; Betaprone Cream 0.05%; Betaprone Lotion 0.05%; Betaprone Ointment 0.05%; Beteflam; Betnesol Eye and Ear Drops; Betnesol Eye and Ear Drops 0.1%; Betnesol Pellets 0.1mg; Betnesol Retention Enema 5mg/100ml; Betnesol Retention Enemas; Betnesol Tab 0.5mg; Betnesol Tablets; Betnovate 1/2 Crm 0.05%; Betnovate 1/2 Lot 0.05%; Betnovate 1/2 Ont 0.05%; Betnovate Crm 0.1%; Betnovate Lot 0.1%; Betnovate Lotion 0.1%; Betnovate Ont 0.1%; Calcipotriene 0.005% and Betamethasone Dipropionate 0.064%; Calcipotriene and Betamethasone Dipropionate; Celestoderm V; Celestoderm V Crm 0.1%; Celestoderm V Ont 0.1%; Celestoderm V/2; Celestoderm V/2 Cream .05%; Celestoderm V/2 Ointment 0.05%; Celestone Repetabs 1mg; Celestone Soluspan; Celestone Tab 0.5mg; Clotrimazole and Betamethasone Dipropionate; DermacinRx Therazole Pak; Diprogen Cream; Diprogen Ointment; Diprolene; Diprolene AF; Diprosalic; Diprosone Cream; Diprosone Lotion; Diprosone Ointment; Dom-gentamicin-betamethasone; Dovobet Gel; Dovobet Ointment; Dr. Throwers Beta; Dr. Throwers Pbc No. 1; Ectosone Regular Lotion 0.1%; Enstilar; Garasone Ophthalmic Ointment; Garasone Ophthalmic and Otic Solution; Lotriderm Cream; Lotrisone; Luxiq; Marbeta 25 Kit; Occlucort Film Forming Lot 0.05; PMS-clotrimazole-betamethasone; PMS-gentamicin-betamethasone; Prevex B; Pro-lene Glycol Cream - 0.05%; Pro-lene Glycol Lotion - 0.05%; Pro-lene Glycol Ointment - 0.05%; Pro-sone Cream - 0.05%; Pro-sone Lotion - 0.05%; Pro-sone Ointment - 0.05%; Ratio-ectosone Mild Cream 0.05%; Ratio-ectosone Mild Lotion 0.05%; Ratio-ectosone Regular Cream 0.1%; Ratio-ectosone Regular Lotion 0.1%; Ratio-topisalic; ReadySharp Betamethasone; Rhoprolene Glycol Cream 0.5mg/gm; Rhoprolene Glycol Lotion 0.5mg/gm; Rhoprolene Glycol Ointment 0.5mg/gm; Rhoprosone Cream 0.05%; Rhoprosone Lotion 0.05%; Rhoprosone Oint 0.05%; Rivasone Scalp Lot 0.1%; Rolene Cream; Rolene Lotion; Rolene Ointment; Rosone Cream; Rosone Lotion; Rosone Ointment; Sandoz Pentasone; Sernivo; Taclonex; Taclonex Scalp; Taro Sone Lot 0.05%; Taro Sone Ont; Taro-sone; Teva-topilene; Teva-topisone; Valisone Scalp Lotion; Valisone-G Cream; Valisone-G Ointment

>  <SALTS>  (1) 
Betamethasone acetate; Betamethasone benzoate; Betamethasone dihydrogen phosphate; Betamethasone dipropionate; Betamethasone sodium phosphate; Betamethasone valerate

>  <SECONDARY_ACCESSION_NUMBERS>  (1) 
APRD00513

>  <SMILES>  (1) 
[H][C@@]12C[C@H](C)[C@](O)(C(=O)CO)[C@@]1(C)C[C@H](O)[C@@]1(F)[C@@]2([H])CCC2=CC(=O)C=C[C@]12C

>  <SYNONYMS>  (1) 
16β-Methyl-1,4-pregnadiene-9α-fluoro-11β,17α,21-triol-3,20-dione; 9-Fluoro-16β-methylprednisolone; 9α-Fluoro-16β-methylprednisolone; beta-Methasone alcohol; Betadexamethasone; Betametasona; Betamethasone; Betamethasonum

$$$$
