465
     RDKit          2D

 32 34  0  0  1  0  0  0  0  0999 V2000
    6.9550   -1.8560    0.0000 O   0  0  0  0  0  0  0  0  0  0  0  0
    5.5967   -2.2999    0.0000 O   0  0  0  0  0  0  0  0  0  0  0  0
    4.6232    1.8275    0.0000 O   0  0  0  0  0  0  0  0  0  0  0  0
    5.1107    0.1748    0.0000 N   0  0  0  0  0  0  0  0  0  0  0  0
    5.8914   -0.9016    0.0000 C   0  0  0  0  0  0  0  0  0  0  0  0
    6.3729   -0.2377    0.0000 C   0  0  0  0  0  0  0  0  0  0  0  0
    5.8914    0.4263    0.0000 C   0  0  0  0  0  0  0  0  0  0  0  0
    5.1107   -0.6502    0.0000 C   0  0  0  0  0  0  0  0  0  0  0  0
    4.3261    0.4298    0.0000 C   0  0  0  0  0  0  0  0  0  0  0  0
    4.3261   -0.9052    0.0000 C   0  0  0  0  0  0  0  0  0  0  0  0
    3.8411   -0.2377    0.0000 C   0  0  0  0  0  0  0  0  0  0  0  0
    6.1477   -1.6858    0.0000 C   0  0  0  0  0  0  0  0  0  0  0  0
    4.0711    1.2145    0.0000 C   0  0  0  0  0  0  0  0  0  0  0  0
    3.2641    1.3860    0.0000 C   0  0  0  0  0  0  0  0  0  0  0  0
    2.7121    0.7729    0.0000 C   0  0  0  0  0  0  0  0  0  0  0  0
    3.0092    2.1707    0.0000 C   0  0  0  0  0  0  0  0  0  0  0  0
    1.9050    0.9444    0.0000 C   0  0  0  0  0  0  0  0  0  0  0  0
    2.2021    2.3422    0.0000 C   0  0  0  0  0  0  0  0  0  0  0  0
    1.6501    1.7290    0.0000 C   0  0  0  0  0  0  0  0  0  0  0  0
    0.0000    0.0000    0.0000 H   0  0  0  0  0  0  0  0  0  0  0  0
    0.0000    0.0000    0.0000 H   0  0  0  0  0  0  0  0  0  0  0  0
    0.0000    0.0000    0.0000 H   0  0  0  0  0  0  0  0  0  0  0  0
    0.0000    0.0000    0.0000 H   0  0  0  0  0  0  0  0  0  0  0  0
    0.0000    0.0000    0.0000 H   0  0  0  0  0  0  0  0  0  0  0  0
    0.0000    0.0000    0.0000 H   0  0  0  0  0  0  0  0  0  0  0  0
    0.0000    0.0000    0.0000 H   0  0  0  0  0  0  0  0  0  0  0  0
    0.0000    0.0000    0.0000 H   0  0  0  0  0  0  0  0  0  0  0  0
    0.0000    0.0000    0.0000 H   0  0  0  0  0  0  0  0  0  0  0  0
    0.0000    0.0000    0.0000 H   0  0  0  0  0  0  0  0  0  0  0  0
    0.0000    0.0000    0.0000 H   0  0  0  0  0  0  0  0  0  0  0  0
    0.0000    0.0000    0.0000 H   0  0  0  0  0  0  0  0  0  0  0  0
    0.0000    0.0000    0.0000 H   0  0  0  0  0  0  0  0  0  0  0  0
  1 12  1  0
  2 12  2  0
  3 13  2  0
  4  7  1  0
  4  8  1  0
  4  9  1  0
  5  6  1  0
  5  8  1  0
  5 12  1  0
  6  7  1  0
  8 10  2  0
  9 11  2  0
  9 13  1  0
 10 11  1  0
 13 14  1  0
 14 15  2  0
 14 16  1  0
 15 17  1  0
 16 18  2  0
 17 19  2  0
 18 19  1  0
  1 20  1  0
  5 21  1  0
  6 22  1  0
  6 23  1  0
  7 24  1  0
  7 25  1  0
 10 26  1  0
 11 27  1  0
 15 28  1  0
 16 29  1  0
 17 30  1  0
 18 31  1  0
 19 32  1  0
M  END
>  <ALOGPS_LOGP>  (1) 
2.66

>  <ALOGPS_LOGS>  (1) 
-2.70

>  <ALOGPS_SOLUBILITY>  (1) 
5.13e-01 g/l

>  <DATABASE_ID>  (1) 
DB00465

>  <DATABASE_NAME>  (1) 
drugbank

>  <DRUGBANK_ID>  (1) 
DB00465

>  <DRUG_GROUPS>  (1) 
approved

>  <EXACT_MASS>  (1) 
255.089543287

>  <FORMULA>  (1) 
C15H13NO3

>  <GENERIC_NAME>  (1) 
Ketorolac

>  <INCHI_IDENTIFIER>  (1) 
InChI=1S/C15H13NO3/c17-14(10-4-2-1-3-5-10)13-7-6-12-11(15(18)19)8-9-16(12)13/h1-7,11H,8-9H2,(H,18,19)

>  <INCHI_KEY>  (1) 
OZWKMVRBQXNZKK-UHFFFAOYSA-N

>  <INTERNATIONAL_BRANDS>  (1) 
Bedoral; Dolten; Dolten SL; Dorixina forte NF; Emodol; Etorac; Ketonic; Ketora; Lixidol; Syndol; Taradyl; Tarasyn; Toradol

>  <JCHEM_ACCEPTOR_COUNT>  (1) 
3

>  <JCHEM_AVERAGE_POLARIZABILITY>  (1) 
26.67060006361659

>  <JCHEM_BIOAVAILABILITY>  (1) 
1

>  <JCHEM_DONOR_COUNT>  (1) 
1

>  <JCHEM_FORMAL_CHARGE>  (1) 
0

>  <JCHEM_GHOSE_FILTER>  (1) 
1

>  <JCHEM_IUPAC>  (1) 
5-benzoyl-2,3-dihydro-1H-pyrrolizine-1-carboxylic acid

>  <JCHEM_LOGP>  (1) 
2.283362963666667

>  <JCHEM_MDDR_LIKE_RULE>  (1) 
0

>  <JCHEM_NUMBER_OF_RINGS>  (1) 
3

>  <JCHEM_PHYSIOLOGICAL_CHARGE>  (1) 
-1

>  <JCHEM_PKA_STRONGEST_ACIDIC>  (1) 
3.835179403731399

>  <JCHEM_PKA_STRONGEST_BASIC>  (1) 
-7.792088517190788

>  <JCHEM_POLAR_SURFACE_AREA>  (1) 
59.3

>  <JCHEM_REFRACTIVITY>  (1) 
70.19450000000002

>  <JCHEM_ROTATABLE_BOND_COUNT>  (1) 
3

>  <JCHEM_RULE_OF_FIVE>  (1) 
1

>  <JCHEM_TRADITIONAL_IUPAC>  (1) 
ketorolac

>  <JCHEM_VEBER_RULE>  (1) 
0

>  <MOLECULAR_WEIGHT>  (1) 
255.2686

>  <PRODUCTS>  (1) 
Acular; Acular Liq 0.5%; Acular Ls; Acuvail; Apo-ketorolac; Apo-ketorolac Injectable; Ketorolac; Ketorolac Tromethamine; Ketorolac Tromethamine Injection USP; Ketorolac Tromethamine Injection, USP; Ketorolac tromethamine; Ketotolac Tromethamine; Mar-ketorolac; Mint-ketorolac; Novo-ketorolac - Tab 10mg; Nu-ketorolac; Nu-ketorolac Ophthalmic Solution; Omidria; Ratio-ketorolac; ReadySharp Anesthetics plus Ketorolac; ReadySharp Ketorolac; Riva-ketorolac 10 mg; Sprix; Toradol; Toradol Im; Toradol Im 30mg/ml; Toradol Inj 10mg/ml; Toradol Tab 10mg; Toronova II SUIK; Toronova SUIK; Waymade-ketorolac Tromethamine

>  <SALTS>  (1) 
Ketorolac tromethamine

>  <SECONDARY_ACCESSION_NUMBERS>  (1) 
APRD01060

>  <SMILES>  (1) 
OC(=O)C1CCN2C1=CC=C2C(=O)C1=CC=CC=C1

>  <SYNONYMS>  (1) 
(+-)-5-Benzoyl-2,3-dihydro-1H-pyrrolizine-1-carboxylic acid; Ketorolac; KÃ©torolac; Ketorolaco; Ketorolacum

$$$$
