5282443
     RDKit          2D

 43 45  0  0  0  0  0  0  0  0999 V2000
    2.9558    1.2375    0.0000 N   0  0  0  0  0  0  0  0  0  0  0  0
    6.5282    0.8250    0.0000 N   0  0  0  0  0  0  0  0  0  0  0  0
    2.8696    2.0580    0.0000 C   0  0  0  0  0  0  0  0  0  0  0  0
    2.2021    0.9020    0.0000 C   0  0  0  0  0  0  0  0  0  0  0  0
    1.6500    1.5151    0.0000 C   0  0  0  0  0  0  0  0  0  0  0  0
    2.0625    2.2295    0.0000 C   0  0  0  0  0  0  0  0  0  0  0  0
    3.6703    0.8250    0.0000 C   0  0  0  0  0  0  0  0  0  0  0  0
    4.3847    1.2375    0.0000 C   0  0  0  0  0  0  0  0  0  0  0  0
    5.0993    0.8250    0.0000 C   0  0  0  0  0  0  0  0  0  0  0  0
    5.0993    0.0000    0.0000 C   0  0  0  0  0  0  0  0  0  0  0  0
    5.8137    1.2375    0.0000 C   0  0  0  0  0  0  0  0  0  0  0  0
    5.8137   -0.4125    0.0000 C   0  0  0  0  0  0  0  0  0  0  0  0
    4.3847   -0.4125    0.0000 C   0  0  0  0  0  0  0  0  0  0  0  0
    5.8137    2.0625    0.0000 C   0  0  0  0  0  0  0  0  0  0  0  0
    5.0993   -1.6500    0.0000 C   0  0  0  0  0  0  0  0  0  0  0  0
    5.8137   -1.2375    0.0000 C   0  0  0  0  0  0  0  0  0  0  0  0
    4.3847   -1.2375    0.0000 C   0  0  0  0  0  0  0  0  0  0  0  0
    6.5282    2.4751    0.0000 C   0  0  0  0  0  0  0  0  0  0  0  0
    5.0993   -2.4751    0.0000 C   0  0  0  0  0  0  0  0  0  0  0  0
    7.2427    1.2375    0.0000 C   0  0  0  0  0  0  0  0  0  0  0  0
    7.2427    2.0625    0.0000 C   0  0  0  0  0  0  0  0  0  0  0  0
    0.0000    0.0000    0.0000 H   0  0  0  0  0  0  0  0  0  0  0  0
    0.0000    0.0000    0.0000 H   0  0  0  0  0  0  0  0  0  0  0  0
    0.0000    0.0000    0.0000 H   0  0  0  0  0  0  0  0  0  0  0  0
    0.0000    0.0000    0.0000 H   0  0  0  0  0  0  0  0  0  0  0  0
    0.0000    0.0000    0.0000 H   0  0  0  0  0  0  0  0  0  0  0  0
    0.0000    0.0000    0.0000 H   0  0  0  0  0  0  0  0  0  0  0  0
    0.0000    0.0000    0.0000 H   0  0  0  0  0  0  0  0  0  0  0  0
    0.0000    0.0000    0.0000 H   0  0  0  0  0  0  0  0  0  0  0  0
    0.0000    0.0000    0.0000 H   0  0  0  0  0  0  0  0  0  0  0  0
    0.0000    0.0000    0.0000 H   0  0  0  0  0  0  0  0  0  0  0  0
    0.0000    0.0000    0.0000 H   0  0  0  0  0  0  0  0  0  0  0  0
    0.0000    0.0000    0.0000 H   0  0  0  0  0  0  0  0  0  0  0  0
    0.0000    0.0000    0.0000 H   0  0  0  0  0  0  0  0  0  0  0  0
    0.0000    0.0000    0.0000 H   0  0  0  0  0  0  0  0  0  0  0  0
    0.0000    0.0000    0.0000 H   0  0  0  0  0  0  0  0  0  0  0  0
    0.0000    0.0000    0.0000 H   0  0  0  0  0  0  0  0  0  0  0  0
    0.0000    0.0000    0.0000 H   0  0  0  0  0  0  0  0  0  0  0  0
    0.0000    0.0000    0.0000 H   0  0  0  0  0  0  0  0  0  0  0  0
    0.0000    0.0000    0.0000 H   0  0  0  0  0  0  0  0  0  0  0  0
    0.0000    0.0000    0.0000 H   0  0  0  0  0  0  0  0  0  0  0  0
    0.0000    0.0000    0.0000 H   0  0  0  0  0  0  0  0  0  0  0  0
    0.0000    0.0000    0.0000 H   0  0  0  0  0  0  0  0  0  0  0  0
  1  3  1  0
  1  4  1  0
  1  7  1  0
  2 11  2  0
  2 20  1  0
  3  6  1  0
  4  5  1  0
  5  6  1  0
  7  8  1  0
  8  9  2  0
  9 10  1  0
  9 11  1  0
 10 12  2  0
 10 13  1  0
 11 14  1  0
 12 16  1  0
 13 17  2  0
 14 18  2  0
 15 16  2  0
 15 17  1  0
 15 19  1  0
 18 21  1  0
 20 21  2  0
  3 22  1  0
  3 23  1  0
  4 24  1  0
  4 25  1  0
  5 26  1  0
  5 27  1  0
  6 28  1  0
  6 29  1  0
  7 30  1  0
  7 31  1  0
  8 32  1  0
 12 33  1  0
 13 34  1  0
 14 35  1  0
 16 36  1  0
 17 37  1  0
 18 38  1  0
 19 39  1  0
 19 40  1  0
 19 41  1  0
 20 42  1  0
 21 43  1  0
M  END
>  <ALOGPS_LOGP>  (1) 
4.14

>  <ALOGPS_LOGS>  (1) 
-3.72

>  <ALOGPS_SOLUBILITY>  (1) 
5.37e-02 g/l

>  <DATABASE_ID>  (1) 
DB00427

>  <DATABASE_NAME>  (1) 
drugbank

>  <DRUGBANK_ID>  (1) 
DB00427

>  <DRUG_GROUPS>  (1) 
approved

>  <EXACT_MASS>  (1) 
278.178298714

>  <FORMULA>  (1) 
C19H22N2

>  <GENERIC_NAME>  (1) 
Triprolidine

>  <INCHI_IDENTIFIER>  (1) 
InChI=1S/C19H22N2/c1-16-7-9-17(10-8-16)18(19-6-2-3-12-20-19)11-15-21-13-4-5-14-21/h2-3,6-12H,4-5,13-15H2,1H3/b18-11+

>  <INCHI_KEY>  (1) 
CBEQULMOCCWAQT-WOJGMQOQSA-N

>  <INTERNATIONAL_BRANDS>  (1) 
Anmin; Venen

>  <JCHEM_ACCEPTOR_COUNT>  (1) 
2

>  <JCHEM_AVERAGE_POLARIZABILITY>  (1) 
33.094547664816986

>  <JCHEM_BIOAVAILABILITY>  (1) 
1

>  <JCHEM_DONOR_COUNT>  (1) 
0

>  <JCHEM_FORMAL_CHARGE>  (1) 
0

>  <JCHEM_GHOSE_FILTER>  (1) 
1

>  <JCHEM_IUPAC>  (1) 
2-[(1E)-1-(4-methylphenyl)-3-(pyrrolidin-1-yl)prop-1-en-1-yl]pyridine

>  <JCHEM_LOGP>  (1) 
4.045153588666668

>  <JCHEM_MDDR_LIKE_RULE>  (1) 
0

>  <JCHEM_NUMBER_OF_RINGS>  (1) 
3

>  <JCHEM_PHYSIOLOGICAL_CHARGE>  (1) 
1

>  <JCHEM_PKA_STRONGEST_BASIC>  (1) 
8.635286307414153

>  <JCHEM_POLAR_SURFACE_AREA>  (1) 
16.130000000000003

>  <JCHEM_REFRACTIVITY>  (1) 
98.5253

>  <JCHEM_ROTATABLE_BOND_COUNT>  (1) 
4

>  <JCHEM_RULE_OF_FIVE>  (1) 
1

>  <JCHEM_TRADITIONAL_IUPAC>  (1) 
triprolidine

>  <JCHEM_VEBER_RULE>  (1) 
1

>  <MOLECULAR_WEIGHT>  (1) 
278.3914

>  <PRODUCTS>  (1) 
Actifed DM Syrup; Actifed DM Tablets; Actifed Plus Caplet; Actifed Plus Caplets; Actifed Syrup; Actifed Tablets; Aprodine; Coactifed; Cotrifed; Covan Syrup; Ed-A-hist Pse; HISTEX PD Drops; HISTEX PDX Drops; Histex; Histex Ac; Histex-DM; Histex-PE; M-Hist PD; Poly Hist NC; Ratio-cotridin; Ratio-cotridin Expectorant; Silafed; Triacin-C; Triprofed Tab; Triprolidine Hydrochloride; VanaClear PD; Vanahist Pd; Wal-Act

>  <SALTS>  (1) 
Triprolidine hydrochloride; Triprolidine hydrochloride monohydrate

>  <SECONDARY_ACCESSION_NUMBERS>  (1) 
APRD00306

>  <SMILES>  (1) 
CC1=CC=C(C=C1)C(=C/CN1CCCC1)\C1=CC=CC=N1

>  <SYNONYMS>  (1) 
Tripolidina; Triprolidin; Triprolidine; Triprolidinum

$$$$
