980
     RDKit          2D

 40 42  0  0  1  0  0  0  0  0999 V2000
    2.1316    3.1623    0.0000 O   0  0  0  0  0  0  0  0  0  0  0  0
    4.0172   -2.0952    0.0000 O   0  0  0  0  0  0  0  0  0  0  0  0
    2.9536   -1.1408    0.0000 N   0  0  0  0  0  0  0  0  0  0  0  0
    3.7993    0.8714    0.0000 C   0  0  0  0  0  0  0  0  0  0  0  0
    3.6267    1.6732    0.0000 C   0  0  0  0  0  0  0  0  0  0  0  0
    4.6149    0.7865    0.0000 C   0  0  0  0  0  0  0  0  0  0  0  0
    4.9492    1.5354    0.0000 C   0  0  0  0  0  0  0  0  0  0  0  0
    4.3412    2.0857    0.0000 C   0  0  0  0  0  0  0  0  0  0  0  0
    3.2482    0.2574    0.0000 C   0  0  0  0  0  0  0  0  0  0  0  0
    2.9121    2.0857    0.0000 C   0  0  0  0  0  0  0  0  0  0  0  0
    2.1316    1.8343    0.0000 C   0  0  0  0  0  0  0  0  0  0  0  0
    2.9121    2.9107    0.0000 C   0  0  0  0  0  0  0  0  0  0  0  0
    4.3412    2.9107    0.0000 C   0  0  0  0  0  0  0  0  0  0  0  0
    3.5046   -0.5268    0.0000 C   0  0  0  0  0  0  0  0  0  0  0  0
    1.6500    2.4982    0.0000 C   0  0  0  0  0  0  0  0  0  0  0  0
    3.6267    3.3233    0.0000 C   0  0  0  0  0  0  0  0  0  0  0  0
    3.2099   -1.9250    0.0000 C   0  0  0  0  0  0  0  0  0  0  0  0
    2.6589   -2.5390    0.0000 C   0  0  0  0  0  0  0  0  0  0  0  0
    2.9152   -3.3233    0.0000 C   0  0  0  0  0  0  0  0  0  0  0  0
    0.0000    0.0000    0.0000 H   0  0  0  0  0  0  0  0  0  0  0  0
    0.0000    0.0000    0.0000 H   0  0  0  0  0  0  0  0  0  0  0  0
    0.0000    0.0000    0.0000 H   0  0  0  0  0  0  0  0  0  0  0  0
    0.0000    0.0000    0.0000 H   0  0  0  0  0  0  0  0  0  0  0  0
    0.0000    0.0000    0.0000 H   0  0  0  0  0  0  0  0  0  0  0  0
    0.0000    0.0000    0.0000 H   0  0  0  0  0  0  0  0  0  0  0  0
    0.0000    0.0000    0.0000 H   0  0  0  0  0  0  0  0  0  0  0  0
    0.0000    0.0000    0.0000 H   0  0  0  0  0  0  0  0  0  0  0  0
    0.0000    0.0000    0.0000 H   0  0  0  0  0  0  0  0  0  0  0  0
    0.0000    0.0000    0.0000 H   0  0  0  0  0  0  0  0  0  0  0  0
    0.0000    0.0000    0.0000 H   0  0  0  0  0  0  0  0  0  0  0  0
    0.0000    0.0000    0.0000 H   0  0  0  0  0  0  0  0  0  0  0  0
    0.0000    0.0000    0.0000 H   0  0  0  0  0  0  0  0  0  0  0  0
    0.0000    0.0000    0.0000 H   0  0  0  0  0  0  0  0  0  0  0  0
    0.0000    0.0000    0.0000 H   0  0  0  0  0  0  0  0  0  0  0  0
    0.0000    0.0000    0.0000 H   0  0  0  0  0  0  0  0  0  0  0  0
    0.0000    0.0000    0.0000 H   0  0  0  0  0  0  0  0  0  0  0  0
    0.0000    0.0000    0.0000 H   0  0  0  0  0  0  0  0  0  0  0  0
    0.0000    0.0000    0.0000 H   0  0  0  0  0  0  0  0  0  0  0  0
    0.0000    0.0000    0.0000 H   0  0  0  0  0  0  0  0  0  0  0  0
    0.0000    0.0000    0.0000 H   0  0  0  0  0  0  0  0  0  0  0  0
  1 12  1  0
  1 15  1  0
  2 17  2  0
  3 14  1  0
  3 17  1  0
  4  5  1  0
  4  6  1  0
  4  9  1  1
  5  8  2  0
  5 10  1  0
  6  7  1  0
  7  8  1  0
  8 13  1  0
  9 14  1  0
 10 11  1  0
 10 12  2  0
 11 15  1  0
 12 16  1  0
 13 16  2  0
 17 18  1  0
 18 19  1  0
  3 20  1  0
  4 21  1  0
  6 22  1  0
  6 23  1  0
  7 24  1  0
  7 25  1  0
  9 26  1  0
  9 27  1  0
 11 28  1  0
 11 29  1  0
 13 30  1  0
 14 31  1  0
 14 32  1  0
 15 33  1  0
 15 34  1  0
 16 35  1  0
 18 36  1  0
 18 37  1  0
 19 38  1  0
 19 39  1  0
 19 40  1  0
M  END
>  <ALOGPS_LOGP>  (1) 
3.03

>  <ALOGPS_LOGS>  (1) 
-4.20

>  <ALOGPS_SOLUBILITY>  (1) 
1.64e-02 g/l

>  <DATABASE_ID>  (1) 
DB00980

>  <DATABASE_NAME>  (1) 
drugbank

>  <DRUGBANK_ID>  (1) 
DB00980

>  <DRUG_GROUPS>  (1) 
approved; investigational

>  <EXACT_MASS>  (1) 
259.157228921

>  <FORMULA>  (1) 
C16H21NO2

>  <GENERIC_NAME>  (1) 
Ramelteon

>  <INCHI_IDENTIFIER>  (1) 
InChI=1S/C16H21NO2/c1-2-15(18)17-9-7-12-4-3-11-5-6-14-13(16(11)12)8-10-19-14/h5-6,12H,2-4,7-10H2,1H3,(H,17,18)/t12-/m0/s1

>  <INCHI_KEY>  (1) 
YLXDSYKOBKBWJQ-LBPRGKRZSA-N

>  <JCHEM_ACCEPTOR_COUNT>  (1) 
2

>  <JCHEM_AVERAGE_POLARIZABILITY>  (1) 
29.990198126417273

>  <JCHEM_BIOAVAILABILITY>  (1) 
1

>  <JCHEM_DONOR_COUNT>  (1) 
1

>  <JCHEM_FORMAL_CHARGE>  (1) 
0

>  <JCHEM_GHOSE_FILTER>  (1) 
1

>  <JCHEM_IUPAC>  (1) 
N-{2-[(8S)-1H,2H,6H,7H,8H-indeno[5,4-b]furan-8-yl]ethyl}propanamide

>  <JCHEM_LOGP>  (1) 
2.5705583956666667

>  <JCHEM_MDDR_LIKE_RULE>  (1) 
0

>  <JCHEM_NUMBER_OF_RINGS>  (1) 
3

>  <JCHEM_PHYSIOLOGICAL_CHARGE>  (1) 
0

>  <JCHEM_PKA_STRONGEST_ACIDIC>  (1) 
15.822429841668786

>  <JCHEM_PKA_STRONGEST_BASIC>  (1) 
-0.40319387136005036

>  <JCHEM_POLAR_SURFACE_AREA>  (1) 
38.33

>  <JCHEM_REFRACTIVITY>  (1) 
75.5185

>  <JCHEM_ROTATABLE_BOND_COUNT>  (1) 
4

>  <JCHEM_RULE_OF_FIVE>  (1) 
1

>  <JCHEM_TRADITIONAL_IUPAC>  (1) 
ramelteon

>  <JCHEM_VEBER_RULE>  (1) 
1

>  <MOLECULAR_WEIGHT>  (1) 
259.3434

>  <PRODUCTS>  (1) 
Rozerem

>  <SECONDARY_ACCESSION_NUMBERS>  (1) 
APRD01213

>  <SMILES>  (1) 
CCC(=O)NCC[C@@H]1CCC2=C1C1=C(OCC1)C=C2

$$$$
