660
     RDKit          2D

 31 32  0  0  1  0  0  0  0  0999 V2000
    4.4610    1.3727    0.0000 O   0  0  0  0  0  0  0  0  0  0  0  0
    3.0791   -0.3497    0.0000 O   0  0  0  0  0  0  0  0  0  0  0  0
    4.6910    2.8248    0.0000 O   0  0  0  0  0  0  0  0  0  0  0  0
    3.3810    2.1573    0.0000 N   0  0  0  0  0  0  0  0  0  0  0  0
    3.7935    0.8878    0.0000 C   0  0  0  0  0  0  0  0  0  0  0  0
    3.1261    1.3727    0.0000 C   0  0  0  0  0  0  0  0  0  0  0  0
    3.7935    0.0628    0.0000 C   0  0  0  0  0  0  0  0  0  0  0  0
    4.2060    2.1573    0.0000 C   0  0  0  0  0  0  0  0  0  0  0  0
    3.0791   -1.1747    0.0000 C   0  0  0  0  0  0  0  0  0  0  0  0
    3.7935   -1.5873    0.0000 C   0  0  0  0  0  0  0  0  0  0  0  0
    2.3645   -1.5873    0.0000 C   0  0  0  0  0  0  0  0  0  0  0  0
    3.7935   -2.4123    0.0000 C   0  0  0  0  0  0  0  0  0  0  0  0
    2.3645   -2.4123    0.0000 C   0  0  0  0  0  0  0  0  0  0  0  0
    3.0791   -2.8248    0.0000 C   0  0  0  0  0  0  0  0  0  0  0  0
    4.5080   -2.8248    0.0000 C   0  0  0  0  0  0  0  0  0  0  0  0
    1.6500   -2.8248    0.0000 C   0  0  0  0  0  0  0  0  0  0  0  0
    0.0000    0.0000    0.0000 H   0  0  0  0  0  0  0  0  0  0  0  0
    0.0000    0.0000    0.0000 H   0  0  0  0  0  0  0  0  0  0  0  0
    0.0000    0.0000    0.0000 H   0  0  0  0  0  0  0  0  0  0  0  0
    0.0000    0.0000    0.0000 H   0  0  0  0  0  0  0  0  0  0  0  0
    0.0000    0.0000    0.0000 H   0  0  0  0  0  0  0  0  0  0  0  0
    0.0000    0.0000    0.0000 H   0  0  0  0  0  0  0  0  0  0  0  0
    0.0000    0.0000    0.0000 H   0  0  0  0  0  0  0  0  0  0  0  0
    0.0000    0.0000    0.0000 H   0  0  0  0  0  0  0  0  0  0  0  0
    0.0000    0.0000    0.0000 H   0  0  0  0  0  0  0  0  0  0  0  0
    0.0000    0.0000    0.0000 H   0  0  0  0  0  0  0  0  0  0  0  0
    0.0000    0.0000    0.0000 H   0  0  0  0  0  0  0  0  0  0  0  0
    0.0000    0.0000    0.0000 H   0  0  0  0  0  0  0  0  0  0  0  0
    0.0000    0.0000    0.0000 H   0  0  0  0  0  0  0  0  0  0  0  0
    0.0000    0.0000    0.0000 H   0  0  0  0  0  0  0  0  0  0  0  0
    0.0000    0.0000    0.0000 H   0  0  0  0  0  0  0  0  0  0  0  0
  1  5  1  0
  1  8  1  0
  2  7  1  0
  2  9  1  0
  3  8  2  0
  4  6  1  0
  4  8  1  0
  5  6  1  0
  5  7  1  0
  9 10  2  0
  9 11  1  0
 10 12  1  0
 11 13  2  0
 12 14  2  0
 12 15  1  0
 13 14  1  0
 13 16  1  0
  4 17  1  0
  5 18  1  0
  6 19  1  0
  6 20  1  0
  7 21  1  0
  7 22  1  0
 10 23  1  0
 11 24  1  0
 14 25  1  0
 15 26  1  0
 15 27  1  0
 15 28  1  0
 16 29  1  0
 16 30  1  0
 16 31  1  0
M  END
>  <ALOGPS_LOGP>  (1) 
1.63

>  <ALOGPS_LOGS>  (1) 
-2.24

>  <ALOGPS_SOLUBILITY>  (1) 
1.28e+00 g/l

>  <DATABASE_ID>  (1) 
DB00660

>  <DATABASE_NAME>  (1) 
drugbank

>  <DRUGBANK_ID>  (1) 
DB00660

>  <DRUG_GROUPS>  (1) 
approved

>  <EXACT_MASS>  (1) 
221.105193351

>  <FORMULA>  (1) 
C12H15NO3

>  <GENERIC_NAME>  (1) 
Metaxalone

>  <INCHI_IDENTIFIER>  (1) 
InChI=1S/C12H15NO3/c1-8-3-9(2)5-10(4-8)15-7-11-6-13-12(14)16-11/h3-5,11H,6-7H2,1-2H3,(H,13,14)

>  <INCHI_KEY>  (1) 
IMWZZHHPURKASS-UHFFFAOYSA-N

>  <JCHEM_ACCEPTOR_COUNT>  (1) 
2

>  <JCHEM_AVERAGE_POLARIZABILITY>  (1) 
23.739774249903224

>  <JCHEM_BIOAVAILABILITY>  (1) 
1

>  <JCHEM_DONOR_COUNT>  (1) 
1

>  <JCHEM_FORMAL_CHARGE>  (1) 
0

>  <JCHEM_GHOSE_FILTER>  (1) 
1

>  <JCHEM_IUPAC>  (1) 
5-(3,5-dimethylphenoxymethyl)-1,3-oxazolidin-2-one

>  <JCHEM_LOGP>  (1) 
2.371813386

>  <JCHEM_MDDR_LIKE_RULE>  (1) 
0

>  <JCHEM_NUMBER_OF_RINGS>  (1) 
2

>  <JCHEM_PHYSIOLOGICAL_CHARGE>  (1) 
0

>  <JCHEM_PKA_STRONGEST_ACIDIC>  (1) 
13.143908605518103

>  <JCHEM_PKA_STRONGEST_BASIC>  (1) 
-4.853175271283958

>  <JCHEM_POLAR_SURFACE_AREA>  (1) 
47.56

>  <JCHEM_REFRACTIVITY>  (1) 
59.322

>  <JCHEM_ROTATABLE_BOND_COUNT>  (1) 
3

>  <JCHEM_RULE_OF_FIVE>  (1) 
1

>  <JCHEM_TRADITIONAL_IUPAC>  (1) 
metaxalone

>  <JCHEM_VEBER_RULE>  (1) 
0

>  <MOLECULAR_WEIGHT>  (1) 
221.2524

>  <PRODUCTS>  (1) 
Metaxall; Metaxalone; Skelaxin

>  <SECONDARY_ACCESSION_NUMBERS>  (1) 
APRD00514

>  <SMILES>  (1) 
CC1=CC(OCC2CNC(=O)O2)=CC(C)=C1

>  <SYNONYMS>  (1) 
Metassalone; Metaxalon; Metaxalona; Metaxalonum

$$$$
