887
     RDKit          2D

 45 46  0  0  0  0  0  0  0  0999 V2000
    5.5540    2.2771    0.0000 S   0  0  0  0  0  0  0  0  0  0  0  0
    4.1250    1.4521    0.0000 O   0  0  0  0  0  0  0  0  0  0  0  0
    4.7290    2.2771    0.0000 O   0  0  0  0  0  0  0  0  0  0  0  0
    6.3790    2.2771    0.0000 O   0  0  0  0  0  0  0  0  0  0  0  0
    6.9829   -1.0229    0.0000 O   0  0  0  0  0  0  0  0  0  0  0  0
    7.6973    0.2146    0.0000 O   0  0  0  0  0  0  0  0  0  0  0  0
    4.4269   -0.4999    0.0000 N   0  0  0  0  0  0  0  0  0  0  0  0
    5.5540    3.1021    0.0000 N   0  0  0  0  0  0  0  0  0  0  0  0
    4.8395   -1.2144    0.0000 C   0  0  0  0  0  0  0  0  0  0  0  0
    4.4269   -1.9289    0.0000 C   0  0  0  0  0  0  0  0  0  0  0  0
    4.8395    0.2146    0.0000 C   0  0  0  0  0  0  0  0  0  0  0  0
    4.8395    1.0396    0.0000 C   0  0  0  0  0  0  0  0  0  0  0  0
    5.5540    1.4521    0.0000 C   0  0  0  0  0  0  0  0  0  0  0  0
    4.8395   -2.6433    0.0000 C   0  0  0  0  0  0  0  0  0  0  0  0
    5.5540   -0.1979    0.0000 C   0  0  0  0  0  0  0  0  0  0  0  0
    6.2684    0.2146    0.0000 C   0  0  0  0  0  0  0  0  0  0  0  0
    6.2684    1.0396    0.0000 C   0  0  0  0  0  0  0  0  0  0  0  0
    4.4269   -3.3578    0.0000 C   0  0  0  0  0  0  0  0  0  0  0  0
    3.3000    1.4521    0.0000 C   0  0  0  0  0  0  0  0  0  0  0  0
    6.9829   -0.1979    0.0000 C   0  0  0  0  0  0  0  0  0  0  0  0
    2.8875    0.7375    0.0000 C   0  0  0  0  0  0  0  0  0  0  0  0
    2.8876    2.1666    0.0000 C   0  0  0  0  0  0  0  0  0  0  0  0
    2.0625    0.7375    0.0000 C   0  0  0  0  0  0  0  0  0  0  0  0
    2.0625    2.1666    0.0000 C   0  0  0  0  0  0  0  0  0  0  0  0
    1.6500    1.4521    0.0000 C   0  0  0  0  0  0  0  0  0  0  0  0
    0.0000    0.0000    0.0000 H   0  0  0  0  0  0  0  0  0  0  0  0
    0.0000    0.0000    0.0000 H   0  0  0  0  0  0  0  0  0  0  0  0
    0.0000    0.0000    0.0000 H   0  0  0  0  0  0  0  0  0  0  0  0
    0.0000    0.0000    0.0000 H   0  0  0  0  0  0  0  0  0  0  0  0
    0.0000    0.0000    0.0000 H   0  0  0  0  0  0  0  0  0  0  0  0
    0.0000    0.0000    0.0000 H   0  0  0  0  0  0  0  0  0  0  0  0
    0.0000    0.0000    0.0000 H   0  0  0  0  0  0  0  0  0  0  0  0
    0.0000    0.0000    0.0000 H   0  0  0  0  0  0  0  0  0  0  0  0
    0.0000    0.0000    0.0000 H   0  0  0  0  0  0  0  0  0  0  0  0
    0.0000    0.0000    0.0000 H   0  0  0  0  0  0  0  0  0  0  0  0
    0.0000    0.0000    0.0000 H   0  0  0  0  0  0  0  0  0  0  0  0
    0.0000    0.0000    0.0000 H   0  0  0  0  0  0  0  0  0  0  0  0
    0.0000    0.0000    0.0000 H   0  0  0  0  0  0  0  0  0  0  0  0
    0.0000    0.0000    0.0000 H   0  0  0  0  0  0  0  0  0  0  0  0
    0.0000    0.0000    0.0000 H   0  0  0  0  0  0  0  0  0  0  0  0
    0.0000    0.0000    0.0000 H   0  0  0  0  0  0  0  0  0  0  0  0
    0.0000    0.0000    0.0000 H   0  0  0  0  0  0  0  0  0  0  0  0
    0.0000    0.0000    0.0000 H   0  0  0  0  0  0  0  0  0  0  0  0
    0.0000    0.0000    0.0000 H   0  0  0  0  0  0  0  0  0  0  0  0
    0.0000    0.0000    0.0000 H   0  0  0  0  0  0  0  0  0  0  0  0
  1  3  2  0
  1  4  2  0
  1  8  1  0
  1 13  1  0
  2 12  1  0
  2 19  1  0
  5 20  1  0
  6 20  2  0
  7  9  1  0
  7 11  1  0
  9 10  1  0
 10 14  1  0
 11 12  2  0
 11 15  1  0
 12 13  1  0
 13 17  2  0
 14 18  1  0
 15 16  2  0
 16 17  1  0
 16 20  1  0
 19 21  2  0
 19 22  1  0
 21 23  1  0
 22 24  2  0
 23 25  2  0
 24 25  1  0
  5 26  1  0
  7 27  1  0
  8 28  1  0
  8 29  1  0
  9 30  1  0
  9 31  1  0
 10 32  1  0
 10 33  1  0
 14 34  1  0
 14 35  1  0
 15 36  1  0
 17 37  1  0
 18 38  1  0
 18 39  1  0
 18 40  1  0
 21 41  1  0
 22 42  1  0
 23 43  1  0
 24 44  1  0
 25 45  1  0
M  END
>  <ALOGPS_LOGP>  (1) 
3.44

>  <ALOGPS_LOGS>  (1) 
-4.15

>  <ALOGPS_SOLUBILITY>  (1) 
2.57e-02 g/l

>  <DATABASE_ID>  (1) 
DB00887

>  <DATABASE_NAME>  (1) 
drugbank

>  <DRUGBANK_ID>  (1) 
DB00887

>  <DRUG_GROUPS>  (1) 
approved

>  <EXACT_MASS>  (1) 
364.10929245

>  <FORMULA>  (1) 
C17H20N2O5S

>  <GENERIC_NAME>  (1) 
Bumetanide

>  <INCHI_IDENTIFIER>  (1) 
InChI=1S/C17H20N2O5S/c1-2-3-9-19-14-10-12(17(20)21)11-15(25(18,22)23)16(14)24-13-7-5-4-6-8-13/h4-8,10-11,19H,2-3,9H2,1H3,(H,20,21)(H2,18,22,23)

>  <INCHI_KEY>  (1) 
MAEIEVLCKWDQJH-UHFFFAOYSA-N

>  <INTERNATIONAL_BRANDS>  (1) 
Bumex; Burinex; Fordiuran; Lunetoron

>  <JCHEM_ACCEPTOR_COUNT>  (1) 
5

>  <JCHEM_AVERAGE_POLARIZABILITY>  (1) 
37.20946617324192

>  <JCHEM_BIOAVAILABILITY>  (1) 
1

>  <JCHEM_DONOR_COUNT>  (1) 
3

>  <JCHEM_FORMAL_CHARGE>  (1) 
0

>  <JCHEM_GHOSE_FILTER>  (1) 
1

>  <JCHEM_IUPAC>  (1) 
3-(butylamino)-4-phenoxy-5-sulfamoylbenzoic acid

>  <JCHEM_LOGP>  (1) 
2.4234616983760477

>  <JCHEM_MDDR_LIKE_RULE>  (1) 
0

>  <JCHEM_NUMBER_OF_RINGS>  (1) 
2

>  <JCHEM_PHYSIOLOGICAL_CHARGE>  (1) 
-1

>  <JCHEM_PKA>  (1) 
9.621964917204291

>  <JCHEM_PKA_STRONGEST_ACIDIC>  (1) 
4.692785240685421

>  <JCHEM_PKA_STRONGEST_BASIC>  (1) 
2.6973731937067633

>  <JCHEM_POLAR_SURFACE_AREA>  (1) 
118.72000000000001

>  <JCHEM_REFRACTIVITY>  (1) 
95.78030000000001

>  <JCHEM_ROTATABLE_BOND_COUNT>  (1) 
8

>  <JCHEM_RULE_OF_FIVE>  (1) 
1

>  <JCHEM_TRADITIONAL_IUPAC>  (1) 
bumetanide

>  <JCHEM_VEBER_RULE>  (1) 
0

>  <MOLECULAR_WEIGHT>  (1) 
364.416

>  <PRODUCTS>  (1) 
Bumetanide; Burinex - Tab 2mg; Burinex Tab 1mg; Burinex Tab 5mg

>  <SECONDARY_ACCESSION_NUMBERS>  (1) 
APRD00294

>  <SMILES>  (1) 
CCCCNC1=C(OC2=CC=CC=C2)C(=CC(=C1)C(O)=O)S(N)(=O)=O

>  <SYNONYMS>  (1) 
Bumetanida; Bumetanidum

$$$$
