756
     RDKit          2D

 27 28  0  0  0  0  0  0  0  0999 V2000
    5.1469    0.1168    0.0000 Cl  0  0  0  0  0  0  0  0  0  0  0  0
    4.9509   -0.9947    0.0000 Cl  0  0  0  0  0  0  0  0  0  0  0  0
    3.0257    2.6447    0.0000 Cl  0  0  0  0  0  0  0  0  0  0  0  0
    2.0930   -2.6447    0.0000 Cl  0  0  0  0  0  0  0  0  0  0  0  0
    5.7112    1.6673    0.0000 Cl  0  0  0  0  0  0  0  0  0  0  0  0
    4.9509   -2.6447    0.0000 Cl  0  0  0  0  0  0  0  0  0  0  0  0
    2.4613    1.0943    0.0000 O   0  0  0  0  0  0  0  0  0  0  0  0
    2.0930   -0.9947    0.0000 O   0  0  0  0  0  0  0  0  0  0  0  0
    3.5220   -0.1697    0.0000 C   0  0  0  0  0  0  0  0  0  0  0  0
    3.8041    0.6056    0.0000 C   0  0  0  0  0  0  0  0  0  0  0  0
    3.5220   -0.9947    0.0000 C   0  0  0  0  0  0  0  0  0  0  0  0
    3.2738    1.2375    0.0000 C   0  0  0  0  0  0  0  0  0  0  0  0
    2.8075   -1.4072    0.0000 C   0  0  0  0  0  0  0  0  0  0  0  0
    4.6166    0.7488    0.0000 C   0  0  0  0  0  0  0  0  0  0  0  0
    4.2364   -1.4072    0.0000 C   0  0  0  0  0  0  0  0  0  0  0  0
    3.5560    2.0128    0.0000 C   0  0  0  0  0  0  0  0  0  0  0  0
    2.8075   -2.2322    0.0000 C   0  0  0  0  0  0  0  0  0  0  0  0
    4.8988    1.5240    0.0000 C   0  0  0  0  0  0  0  0  0  0  0  0
    4.2364   -2.2322    0.0000 C   0  0  0  0  0  0  0  0  0  0  0  0
    4.3684    2.1560    0.0000 C   0  0  0  0  0  0  0  0  0  0  0  0
    3.5220   -2.6447    0.0000 C   0  0  0  0  0  0  0  0  0  0  0  0
    0.0000    0.0000    0.0000 H   0  0  0  0  0  0  0  0  0  0  0  0
    0.0000    0.0000    0.0000 H   0  0  0  0  0  0  0  0  0  0  0  0
    0.0000    0.0000    0.0000 H   0  0  0  0  0  0  0  0  0  0  0  0
    0.0000    0.0000    0.0000 H   0  0  0  0  0  0  0  0  0  0  0  0
    0.0000    0.0000    0.0000 H   0  0  0  0  0  0  0  0  0  0  0  0
    0.0000    0.0000    0.0000 H   0  0  0  0  0  0  0  0  0  0  0  0
  1 14  1  0
  2 15  1  0
  3 16  1  0
  4 17  1  0
  5 18  1  0
  6 19  1  0
  7 12  1  0
  8 13  1  0
  9 10  1  0
  9 11  1  0
 10 12  2  0
 10 14  1  0
 11 13  2  0
 11 15  1  0
 12 16  1  0
 13 17  1  0
 14 18  2  0
 15 19  2  0
 16 20  2  0
 17 21  2  0
 18 20  1  0
 19 21  1  0
  7 22  1  0
  8 23  1  0
  9 24  1  0
  9 25  1  0
 20 26  1  0
 21 27  1  0
M  END
>  <ALOGPS_LOGP>  (1) 
6.77

>  <ALOGPS_LOGS>  (1) 
-5.97

>  <ALOGPS_SOLUBILITY>  (1) 
4.33e-04 g/l

>  <DATABASE_ID>  (1) 
DB00756

>  <DATABASE_NAME>  (1) 
drugbank

>  <DRUGBANK_ID>  (1) 
DB00756

>  <DRUG_GROUPS>  (1) 
approved; withdrawn

>  <EXACT_MASS>  (1) 
403.849895678

>  <FORMULA>  (1) 
C13H6Cl6O2

>  <GENERIC_NAME>  (1) 
Hexachlorophene

>  <INCHI_IDENTIFIER>  (1) 
InChI=1S/C13H6Cl6O2/c14-6-2-8(16)12(20)4(10(6)18)1-5-11(19)7(15)3-9(17)13(5)21/h2-3,20-21H,1H2

>  <INCHI_KEY>  (1) 
ACGUYXCXAPNIKK-UHFFFAOYSA-N

>  <INTERNATIONAL_BRANDS>  (1) 
Aknefug; Dermisan; Pre-Op

>  <JCHEM_ACCEPTOR_COUNT>  (1) 
2

>  <JCHEM_AVERAGE_POLARIZABILITY>  (1) 
34.071855286150594

>  <JCHEM_BIOAVAILABILITY>  (1) 
1

>  <JCHEM_DONOR_COUNT>  (1) 
2

>  <JCHEM_FORMAL_CHARGE>  (1) 
0

>  <JCHEM_GHOSE_FILTER>  (1) 
0

>  <JCHEM_IUPAC>  (1) 
3,4,6-trichloro-2-[(2,3,5-trichloro-6-hydroxyphenyl)methyl]phenol

>  <JCHEM_LOGP>  (1) 
7.082177257666666

>  <JCHEM_MDDR_LIKE_RULE>  (1) 
0

>  <JCHEM_NUMBER_OF_RINGS>  (1) 
2

>  <JCHEM_PHYSIOLOGICAL_CHARGE>  (1) 
-1

>  <JCHEM_PKA>  (1) 
8.794720213161474

>  <JCHEM_PKA_STRONGEST_ACIDIC>  (1) 
5.153372662291707

>  <JCHEM_PKA_STRONGEST_BASIC>  (1) 
-7.377815156118747

>  <JCHEM_POLAR_SURFACE_AREA>  (1) 
40.46

>  <JCHEM_REFRACTIVITY>  (1) 
88.58579999999999

>  <JCHEM_ROTATABLE_BOND_COUNT>  (1) 
2

>  <JCHEM_RULE_OF_FIVE>  (1) 
0

>  <JCHEM_TRADITIONAL_IUPAC>  (1) 
pre-op

>  <JCHEM_VEBER_RULE>  (1) 
0

>  <MOLECULAR_WEIGHT>  (1) 
406.904

>  <PRODUCTS>  (1) 
Phisohex; Sapoderm

>  <SECONDARY_ACCESSION_NUMBERS>  (1) 
APRD00722

>  <SMILES>  (1) 
OC1=C(CC2=C(O)C(Cl)=CC(Cl)=C2Cl)C(Cl)=C(Cl)C=C1Cl

>  <SYNONYMS>  (1) 
2,2'-dihydroxy-3,3',5,5',6,6'-hexachlorodiphenylmethane; 2,2'-dihydroxy-3,5,6,3',5',6'-hexachlorodiphenylmethane; 2,2'-methanediylbis(3,4,6-trichlorophenol); 2,2'-methylenebis(3,4,6-trichlorophenol); 2,2',3,3',5,5'-hexachloro-6,6'-dihydroxydiphenylmethane; bis(2-hydroxy-3,5,6-trichlorophenyl)methane; bis(3,5,6-trichloro-2-hydroxyphenyl)methane; hexachloroph√®ne; Hexachlorophenum; Hexaclorofeno

$$$$
