
     RDKit          2D

 68 70  0  0  0  0  0  0  0  0999 V2000
   -4.3748    5.3422    0.0000 C   0  0  0  0  0  0  0  0  0  0  0  0
   -0.8082   -7.1196    0.0000 C   0  0  0  0  0  0  0  0  0  0  0  0
   -2.7512    5.5902    0.0000 C   0  0  0  0  0  0  0  0  0  0  0  0
   -4.2032    4.5352    0.0000 C   0  0  0  0  0  0  0  0  0  0  0  0
    0.3478   -6.2797    0.0000 C   0  0  0  0  0  0  0  0  0  0  0  0
   -0.9576   -5.6985    0.0000 C   0  0  0  0  0  0  0  0  0  0  0  0
   -1.8906   -0.7677    0.0000 C   0  0  0  0  0  0  0  0  0  0  0  0
   -0.7345    0.0722    0.0000 C   0  0  0  0  0  0  0  0  0  0  0  0
    0.6834   -5.5260    0.0000 C   0  0  0  0  0  0  0  0  0  0  0  0
   -0.6220   -4.9448    0.0000 C   0  0  0  0  0  0  0  0  0  0  0  0
   -1.4057   -1.4351    0.0000 C   0  0  0  0  0  0  0  0  0  0  0  0
   -0.2496   -0.5952    0.0000 C   0  0  0  0  0  0  0  0  0  0  0  0
   -2.0399    0.6534    0.0000 C   0  0  0  0  0  0  0  0  0  0  0  0
   -1.7044    1.4071    0.0000 C   0  0  0  0  0  0  0  0  0  0  0  0
   -2.0837    4.2803    0.0000 C   0  0  0  0  0  0  0  0  0  0  0  0
   -0.4726   -6.3659    0.0000 C   0  0  0  0  0  0  0  0  0  0  0  0
   -2.7512    4.7652    0.0000 C   0  0  0  0  0  0  0  0  0  0  0  0
   -1.5550   -0.0140    0.0000 C   0  0  0  0  0  0  0  0  0  0  0  0
    0.1985   -4.8586    0.0000 C   0  0  0  0  0  0  0  0  0  0  0  0
   -0.5852   -1.3489    0.0000 C   0  0  0  0  0  0  0  0  0  0  0  0
   -3.4186    4.2803    0.0000 C   0  0  0  0  0  0  0  0  0  0  0  0
   -3.1637    3.4956    0.0000 C   0  0  0  0  0  0  0  0  0  0  0  0
    0.0491   -3.4375    0.0000 C   0  0  0  0  0  0  0  0  0  0  0  0
   -1.8538    2.8282    0.0000 C   0  0  0  0  0  0  0  0  0  0  0  0
   -2.1893    2.0745    0.0000 N   0  0  0  0  0  0  0  0  0  0  0  0
    0.5340   -4.1049    0.0000 N   0  0  0  0  0  0  0  0  0  0  0  0
    0.3847   -2.6838    0.0000 N   0  0  0  0  0  0  0  0  0  0  0  0
   -2.3387    3.4956    0.0000 N   0  0  0  0  0  0  0  0  0  0  0  0
   -3.6486    2.8282    0.0000 O   0  0  0  0  0  0  0  0  0  0  0  0
   -0.7714   -3.5237    0.0000 O   0  0  0  0  0  0  0  0  0  0  0  0
   -1.0333    2.9144    0.0000 O   0  0  0  0  0  0  0  0  0  0  0  0
   -0.7677   -2.5013    0.0000 O   0  0  0  0  0  0  0  0  0  0  0  0
    0.5672   -1.5314    0.0000 O   0  0  0  0  0  0  0  0  0  0  0  0
   -0.1003   -2.0163    0.0000 S   0  0  0  0  0  0  0  0  0  0  0  0
    0.0000    0.0000    0.0000 H   0  0  0  0  0  0  0  0  0  0  0  0
    0.0000    0.0000    0.0000 H   0  0  0  0  0  0  0  0  0  0  0  0
    0.0000    0.0000    0.0000 H   0  0  0  0  0  0  0  0  0  0  0  0
    0.0000    0.0000    0.0000 H   0  0  0  0  0  0  0  0  0  0  0  0
    0.0000    0.0000    0.0000 H   0  0  0  0  0  0  0  0  0  0  0  0
    0.0000    0.0000    0.0000 H   0  0  0  0  0  0  0  0  0  0  0  0
    0.0000    0.0000    0.0000 H   0  0  0  0  0  0  0  0  0  0  0  0
    0.0000    0.0000    0.0000 H   0  0  0  0  0  0  0  0  0  0  0  0
    0.0000    0.0000    0.0000 H   0  0  0  0  0  0  0  0  0  0  0  0
    0.0000    0.0000    0.0000 H   0  0  0  0  0  0  0  0  0  0  0  0
    0.0000    0.0000    0.0000 H   0  0  0  0  0  0  0  0  0  0  0  0
    0.0000    0.0000    0.0000 H   0  0  0  0  0  0  0  0  0  0  0  0
    0.0000    0.0000    0.0000 H   0  0  0  0  0  0  0  0  0  0  0  0
    0.0000    0.0000    0.0000 H   0  0  0  0  0  0  0  0  0  0  0  0
    0.0000    0.0000    0.0000 H   0  0  0  0  0  0  0  0  0  0  0  0
    0.0000    0.0000    0.0000 H   0  0  0  0  0  0  0  0  0  0  0  0
    0.0000    0.0000    0.0000 H   0  0  0  0  0  0  0  0  0  0  0  0
    0.0000    0.0000    0.0000 H   0  0  0  0  0  0  0  0  0  0  0  0
    0.0000    0.0000    0.0000 H   0  0  0  0  0  0  0  0  0  0  0  0
    0.0000    0.0000    0.0000 H   0  0  0  0  0  0  0  0  0  0  0  0
    0.0000    0.0000    0.0000 H   0  0  0  0  0  0  0  0  0  0  0  0
    0.0000    0.0000    0.0000 H   0  0  0  0  0  0  0  0  0  0  0  0
    0.0000    0.0000    0.0000 H   0  0  0  0  0  0  0  0  0  0  0  0
    0.0000    0.0000    0.0000 H   0  0  0  0  0  0  0  0  0  0  0  0
    0.0000    0.0000    0.0000 H   0  0  0  0  0  0  0  0  0  0  0  0
    0.0000    0.0000    0.0000 H   0  0  0  0  0  0  0  0  0  0  0  0
    0.0000    0.0000    0.0000 H   0  0  0  0  0  0  0  0  0  0  0  0
    0.0000    0.0000    0.0000 H   0  0  0  0  0  0  0  0  0  0  0  0
    0.0000    0.0000    0.0000 H   0  0  0  0  0  0  0  0  0  0  0  0
    0.0000    0.0000    0.0000 H   0  0  0  0  0  0  0  0  0  0  0  0
    0.0000    0.0000    0.0000 H   0  0  0  0  0  0  0  0  0  0  0  0
    0.0000    0.0000    0.0000 H   0  0  0  0  0  0  0  0  0  0  0  0
    0.0000    0.0000    0.0000 H   0  0  0  0  0  0  0  0  0  0  0  0
    0.0000    0.0000    0.0000 H   0  0  0  0  0  0  0  0  0  0  0  0
  4  1  1  0
  9  5  1  0
 10  6  1  0
 11  7  2  0
 12  8  1  0
 14 13  1  0
 16  2  1  1
 16  5  1  0
 16  6  1  0
 17  3  1  0
 17 15  1  0
 18  7  1  0
 18  8  2  0
 18 13  1  0
 19  9  1  0
 19 10  1  0
 20 11  1  0
 20 12  2  0
 21  4  1  0
 21 17  2  0
 22 21  1  0
 25 14  1  0
 25 24  2  3
 19 26  1  1
 26 23  2  3
 27 23  1  0
 28 15  1  0
 28 22  1  0
 28 24  1  0
 29 22  2  0
 23 30  1  0
 31 24  1  0
 34 20  1  0
 34 27  1  0
 34 32  2  0
 34 33  2  0
  1 35  1  0
  1 36  1  0
  1 37  1  0
  2 38  1  0
  2 39  1  0
  2 40  1  0
  3 41  1  0
  3 42  1  0
  3 43  1  0
  4 44  1  0
  4 45  1  0
  5 46  1  0
  5 47  1  0
  6 48  1  0
  6 49  1  0
  7 50  1  0
  8 51  1  0
  9 52  1  0
  9 53  1  0
 10 54  1  0
 10 55  1  0
 11 56  1  0
 12 57  1  0
 13 58  1  0
 13 59  1  0
 14 60  1  0
 14 61  1  0
 15 62  1  0
 15 63  1  0
 16 64  1  0
 19 65  1  0
 27 66  1  0
 30 67  1  0
 31 68  1  0
M  END
>  <ALOGPS_LOGP>  (1) 
3.03

>  <ALOGPS_LOGS>  (1) 
-4.15

>  <ALOGPS_SOLUBILITY>  (1) 
3.47e-02 g/l

>  <DATABASE_ID>  (1) 
DB00222

>  <DATABASE_NAME>  (1) 
drugbank

>  <DRUGBANK_ID>  (1) 
DB00222

>  <DRUG_GROUPS>  (1) 
approved

>  <EXACT_MASS>  (1) 
490.224991385

>  <FORMULA>  (1) 
C24H34N4O5S

>  <GENERIC_NAME>  (1) 
Glimepiride

>  <INCHI_IDENTIFIER>  (1) 
InChI=1S/C24H34N4O5S/c1-4-21-17(3)15-28(22(21)29)24(31)25-14-13-18-7-11-20(12-8-18)34(32,33)27-23(30)26-19-9-5-16(2)6-10-19/h7-8,11-12,16,19H,4-6,9-10,13-15H2,1-3H3,(H,25,31)(H2,26,27,30)/t16-,19-

>  <INCHI_KEY>  (1) 
WIGIZIANZCJQQY-RUCARUNLSA-N

>  <INTERNATIONAL_BRANDS>  (1) 
GLIMPID; GLIMY

>  <JCHEM_ACCEPTOR_COUNT>  (1) 
7

>  <JCHEM_ATOM_COUNT>  (1) 
68

>  <JCHEM_AVERAGE_POLARIZABILITY>  (1) 
53.31280225505453

>  <JCHEM_BIOAVAILABILITY>  (1) 
1

>  <JCHEM_DONOR_COUNT>  (1) 
3

>  <JCHEM_FORMAL_CHARGE>  (1) 
0

>  <JCHEM_GHOSE_FILTER>  (1) 
0

>  <JCHEM_IUPAC>  (1) 
3-ethyl-4-methyl-2-oxo-N-(2-{4-[({[(1r,4r)-4-methylcyclohexyl]-C-hydroxycarbonimidoyl}amino)sulfonyl]phenyl}ethyl)-2,5-dihydro-1H-pyrrole-1-carboximidic acid

>  <JCHEM_LOGP>  (1) 
4.759742726666667

>  <JCHEM_MDDR_LIKE_RULE>  (1) 
1

>  <JCHEM_NUMBER_OF_RINGS>  (1) 
3

>  <JCHEM_PHYSIOLOGICAL_CHARGE>  (1) 
0

>  <JCHEM_PKA>  (1) 
2.8498985509122208

>  <JCHEM_PKA_STRONGEST_ACIDIC>  (1) 
2.2328883148593555

>  <JCHEM_PKA_STRONGEST_BASIC>  (1) 
-0.3580534710448119

>  <JCHEM_POLAR_SURFACE_AREA>  (1) 
131.66

>  <JCHEM_REFRACTIVITY>  (1) 
130.8476

>  <JCHEM_ROTATABLE_BOND_COUNT>  (1) 
6

>  <JCHEM_RULE_OF_FIVE>  (1) 
1

>  <JCHEM_TRADITIONAL_IUPAC>  (1) 
glimepiride

>  <JCHEM_VEBER_RULE>  (1) 
0

>  <MOLECULAR_WEIGHT>  (1) 
490.62

>  <PRODUCTS>  (1) 
Amaryl; Apo-glimepiride; Avaglim; Avandaryl; Co Glimepiride; Duetact; Glimepiride; Novo-glimepiride; PMS-glimepiride; Pioglitazone and Glimepiride; Pioglitazone hydrochloride and glimepiride; Ratio-glimepiride; Sandoz Glimepiride; Tandemact

>  <SECONDARY_ACCESSION_NUMBERS>  (1) 
APRD00381

>  <SMILES>  (1) 
[H][C@]1(C)CC[C@@]([H])(CC1)N=C(O)NS(=O)(=O)C1=CC=C(CCN=C(O)N2CC(C)=C(CC)C2=O)C=C1

>  <SYNONYMS>  (1) 
Glimepirida; Glim√©piride; Glimepiridum

$$$$
