537
     RDKit          2D

 42 45  0  0  0  0  0  0  0  0999 V2000
    7.1488    1.2022    0.0000 F   0  0  0  0  0  0  0  0  0  0  0  0
    4.2364    2.0072    0.0000 O   0  0  0  0  0  0  0  0  0  0  0  0
    2.0930    0.7697    0.0000 O   0  0  0  0  0  0  0  0  0  0  0  0
    2.8075    2.0072    0.0000 O   0  0  0  0  0  0  0  0  0  0  0  0
    4.2364   -0.4678    0.0000 N   0  0  0  0  0  0  0  0  0  0  0  0
    7.1488   -0.4877    0.0000 N   0  0  0  0  0  0  0  0  0  0  0  0
    8.5746   -1.3182    0.0000 N   0  0  0  0  0  0  0  0  0  0  0  0
    4.2364   -1.2928    0.0000 C   0  0  0  0  0  0  0  0  0  0  0  0
    3.8239   -2.0072    0.0000 C   0  0  0  0  0  0  0  0  0  0  0  0
    4.6489   -2.0072    0.0000 C   0  0  0  0  0  0  0  0  0  0  0  0
    4.9509   -0.0553    0.0000 C   0  0  0  0  0  0  0  0  0  0  0  0
    3.5220   -0.0553    0.0000 C   0  0  0  0  0  0  0  0  0  0  0  0
    4.9509    0.7697    0.0000 C   0  0  0  0  0  0  0  0  0  0  0  0
    5.6884   -0.4963    0.0000 C   0  0  0  0  0  0  0  0  0  0  0  0
    6.4359   -0.0724    0.0000 C   0  0  0  0  0  0  0  0  0  0  0  0
    7.8649   -0.0780    0.0000 C   0  0  0  0  0  0  0  0  0  0  0  0
    7.1456   -1.3127    0.0000 C   0  0  0  0  0  0  0  0  0  0  0  0
    3.5220    0.7697    0.0000 C   0  0  0  0  0  0  0  0  0  0  0  0
    4.2364    1.1822    0.0000 C   0  0  0  0  0  0  0  0  0  0  0  0
    8.5778   -0.4932    0.0000 C   0  0  0  0  0  0  0  0  0  0  0  0
    7.8585   -1.7280    0.0000 C   0  0  0  0  0  0  0  0  0  0  0  0
    5.6884    1.2109    0.0000 C   0  0  0  0  0  0  0  0  0  0  0  0
    6.4359    0.7869    0.0000 C   0  0  0  0  0  0  0  0  0  0  0  0
    2.8075    1.1822    0.0000 C   0  0  0  0  0  0  0  0  0  0  0  0
    0.0000    0.0000    0.0000 H   0  0  0  0  0  0  0  0  0  0  0  0
    0.0000    0.0000    0.0000 H   0  0  0  0  0  0  0  0  0  0  0  0
    0.0000    0.0000    0.0000 H   0  0  0  0  0  0  0  0  0  0  0  0
    0.0000    0.0000    0.0000 H   0  0  0  0  0  0  0  0  0  0  0  0
    0.0000    0.0000    0.0000 H   0  0  0  0  0  0  0  0  0  0  0  0
    0.0000    0.0000    0.0000 H   0  0  0  0  0  0  0  0  0  0  0  0
    0.0000    0.0000    0.0000 H   0  0  0  0  0  0  0  0  0  0  0  0
    0.0000    0.0000    0.0000 H   0  0  0  0  0  0  0  0  0  0  0  0
    0.0000    0.0000    0.0000 H   0  0  0  0  0  0  0  0  0  0  0  0
    0.0000    0.0000    0.0000 H   0  0  0  0  0  0  0  0  0  0  0  0
    0.0000    0.0000    0.0000 H   0  0  0  0  0  0  0  0  0  0  0  0
    0.0000    0.0000    0.0000 H   0  0  0  0  0  0  0  0  0  0  0  0
    0.0000    0.0000    0.0000 H   0  0  0  0  0  0  0  0  0  0  0  0
    0.0000    0.0000    0.0000 H   0  0  0  0  0  0  0  0  0  0  0  0
    0.0000    0.0000    0.0000 H   0  0  0  0  0  0  0  0  0  0  0  0
    0.0000    0.0000    0.0000 H   0  0  0  0  0  0  0  0  0  0  0  0
    0.0000    0.0000    0.0000 H   0  0  0  0  0  0  0  0  0  0  0  0
    0.0000    0.0000    0.0000 H   0  0  0  0  0  0  0  0  0  0  0  0
  1 23  1  0
  2 19  2  0
  3 24  1  0
  4 24  2  0
  5  8  1  0
  5 11  1  0
  5 12  1  0
  6 15  1  0
  6 16  1  0
  6 17  1  0
  7 20  1  0
  7 21  1  0
  8  9  1  0
  8 10  1  0
  9 10  1  0
 11 13  2  0
 11 14  1  0
 12 18  2  0
 13 19  1  0
 13 22  1  0
 14 15  2  0
 15 23  1  0
 16 20  1  0
 17 21  1  0
 18 19  1  0
 18 24  1  0
 22 23  2  0
  3 25  1  0
  7 26  1  0
  8 27  1  0
  9 28  1  0
  9 29  1  0
 10 30  1  0
 10 31  1  0
 12 32  1  0
 14 33  1  0
 16 34  1  0
 16 35  1  0
 17 36  1  0
 17 37  1  0
 20 38  1  0
 20 39  1  0
 21 40  1  0
 21 41  1  0
 22 42  1  0
M  END
>  <ALOGPS_LOGP>  (1) 
-0.57

>  <ALOGPS_LOGS>  (1) 
-2.39

>  <ALOGPS_SOLUBILITY>  (1) 
1.35e+00 g/l

>  <DATABASE_ID>  (1) 
DB00537

>  <DATABASE_NAME>  (1) 
drugbank

>  <DRUGBANK_ID>  (1) 
DB00537

>  <DRUG_GROUPS>  (1) 
approved; investigational

>  <EXACT_MASS>  (1) 
331.133219662

>  <FORMULA>  (1) 
C17H18FN3O3

>  <GENERIC_NAME>  (1) 
Ciprofloxacin

>  <INCHI_IDENTIFIER>  (1) 
InChI=1S/C17H18FN3O3/c18-13-7-11-14(8-15(13)20-5-3-19-4-6-20)21(10-1-2-10)9-12(16(11)22)17(23)24/h7-10,19H,1-6H2,(H,23,24)

>  <INCHI_KEY>  (1) 
MYSWGUAQZAJSOK-UHFFFAOYSA-N

>  <INTERNATIONAL_BRANDS>  (1) 
Bacquinor; Baycip; Ciflox; Cifloxin; Ciprinol; Ciprobay; Ciprocinol; Ciprodar; Ciproxan; Ciproxin; Flociprin; Proquin

>  <JCHEM_ACCEPTOR_COUNT>  (1) 
6

>  <JCHEM_AVERAGE_POLARIZABILITY>  (1) 
33.118176211269244

>  <JCHEM_BIOAVAILABILITY>  (1) 
1

>  <JCHEM_DONOR_COUNT>  (1) 
2

>  <JCHEM_FORMAL_CHARGE>  (1) 
0

>  <JCHEM_GHOSE_FILTER>  (1) 
0

>  <JCHEM_IUPAC>  (1) 
1-cyclopropyl-6-fluoro-4-oxo-7-(piperazin-1-yl)-1,4-dihydroquinoline-3-carboxylic acid

>  <JCHEM_LOGP>  (1) 
-0.8145960428525316

>  <JCHEM_MDDR_LIKE_RULE>  (1) 
0

>  <JCHEM_NUMBER_OF_RINGS>  (1) 
4

>  <JCHEM_PHYSIOLOGICAL_CHARGE>  (1) 
0

>  <JCHEM_PKA_STRONGEST_ACIDIC>  (1) 
5.755554705438363

>  <JCHEM_PKA_STRONGEST_BASIC>  (1) 
8.678038228921855

>  <JCHEM_POLAR_SURFACE_AREA>  (1) 
72.88

>  <JCHEM_REFRACTIVITY>  (1) 
87.93939999999999

>  <JCHEM_ROTATABLE_BOND_COUNT>  (1) 
3

>  <JCHEM_RULE_OF_FIVE>  (1) 
1

>  <JCHEM_TRADITIONAL_IUPAC>  (1) 
ciprofloxacin

>  <JCHEM_VEBER_RULE>  (1) 
0

>  <MOLECULAR_WEIGHT>  (1) 
331.3415

>  <PRODUCTS>  (1) 
Act Ciprofloxacin; Apo-ciproflox; Auro-ciprofloxacin; Bio-ciprofloxacin; Cetraxal; Ciloxan; Cipro; Cipro 100 - Tab 100mg; Cipro HC; Cipro HC Otic Suspension; Cipro I.V. - Liq 10mg/ml; Cipro I.V. Minibags 2mg/ml; Cipro IV 10mg/ml; Cipro Oral Suspension; Cipro Tab 100mg; Cipro Tab 250mg; Cipro Tab 500mg; Cipro Tab 750mg; Cipro XL; Ciprodex; Ciprofloxacin; Ciprofloxacin Extended-Release; Ciprofloxacin Hydrochloride; Ciprofloxacin Injection; Ciprofloxacin Injection USP; Ciprofloxacin Injection, USP; Ciprofloxacin Intravenous Infusion; Ciprofloxacin Intravenous Infusion BP; Ciprofloxacin Intravenous Infusion, BP; Ciprofloxacin Omega; Ciprofloxacin Otic; Ciprofloxacin Tablets; Ciprofloxacin Tablets USP - 100 mg; Ciprofloxacin Tablets USP - 250 mg; Ciprofloxacin Tablets USP - 500 mg; Ciprofloxacin Tablets USP - 750 mg; Ciprofloxacin hydrochloride; Ciprofloxacin-250; Ciprofloxacin-500; Ciprofloxacin-750; Dom-ciprofloxacin; Ipg-ciprofloxacin; Jamp-ciprofloxacin; Mar-ciprofloxacin; Mint-ciproflox; Mint-ciprofloxacin; Mylan-ciprofloxacin; Mylan-ciprofloxacin XL; Nu-ciproflox; Nu-ciprofloxacin Tablets; Otiprio; Otixal; Otovel; PHL-ciprofloxacin; PMS-ciprofloxacin; PMS-ciprofloxacin 0.3%; PMS-ciprofloxacin XL; Priva-ciprofloxacin; Pro-ciprofloxacin; Proquin XR; Q-ciprofloxacin; Ran-ciproflox; Ran-ciprofloxacin; Ratio-ciprofloxacin; Riva-ciprofloxacin; Sandoz Ciprofloxacin; Septa-ciprofloxacin; Taro-ciprofloxacin; Teva-ciprofloxacin; Van-ciprofloxacin

>  <SALTS>  (1) 
Ciprofloxacin hydrochloride

>  <SECONDARY_ACCESSION_NUMBERS>  (1) 
APRD00424; EXPT00999

>  <SMILES>  (1) 
OC(=O)C1=CN(C2CC2)C2=CC(N3CCNCC3)=C(F)C=C2C1=O

>  <SYNONYMS>  (1) 
1-cyclopropyl-6-fluoro-1,4-dihydro-4-oxo-7-(1-piperazinyl)-3-quinolinecarboxylic acid; 1-cyclopropyl-6-fluoro-4-oxo-7-(piperazin-1-yl)-1,4-dihydroquinoline-3-carboxylic acid; 1-Cyclopropyl-6-fluoro-4-oxo-7-piperazin-1-yl-1,4-dihydro-quinoline-3-carboxylic acid; 1-cyclopropyl-6-fluoro-4-oxo-7-piperazin-1-ylquinoline-3-carboxylic acid; 1-Cyclopropyl-6-fluoro-7-(4-methyl-piperazin-1-yl)-4-oxo-1,4-dihydro-quinoline-3-carboxylic acid; 1-cyclopropyl-6-fluoro-7-hexahydro-1-pyrazinyl-4-oxo-1,4-dihydro-3-quinolinecarboxylic acid; Ciprofloxacine; Ciprofloxacino; Ciprofloxacinum

$$$$
