420
     RDKit          2D

 40 42  0  0  0  0  0  0  0  0999 V2000
    3.6958   -2.3626    0.0000 S   0  0  0  0  0  0  0  0  0  0  0  0
    3.6958   -0.7784    0.0000 N   0  0  0  0  0  0  0  0  0  0  0  0
    5.0678    1.5979    0.0000 N   0  0  0  0  0  0  0  0  0  0  0  0
    3.6958    0.0137    0.0000 C   0  0  0  0  0  0  0  0  0  0  0  0
    4.3819    0.4097    0.0000 C   0  0  0  0  0  0  0  0  0  0  0  0
    4.3819    1.2018    0.0000 C   0  0  0  0  0  0  0  0  0  0  0  0
    4.3819   -1.1744    0.0000 C   0  0  0  0  0  0  0  0  0  0  0  0
    3.0099   -1.1744    0.0000 C   0  0  0  0  0  0  0  0  0  0  0  0
    4.3819   -1.9665    0.0000 C   0  0  0  0  0  0  0  0  0  0  0  0
    3.0099   -1.9665    0.0000 C   0  0  0  0  0  0  0  0  0  0  0  0
    5.0899   -0.7508    0.0000 C   0  0  0  0  0  0  0  0  0  0  0  0
    2.3019   -0.7508    0.0000 C   0  0  0  0  0  0  0  0  0  0  0  0
    5.0899   -2.3899    0.0000 C   0  0  0  0  0  0  0  0  0  0  0  0
    2.3019   -2.3899    0.0000 C   0  0  0  0  0  0  0  0  0  0  0  0
    5.7537    1.2018    0.0000 C   0  0  0  0  0  0  0  0  0  0  0  0
    5.0678    2.3899    0.0000 C   0  0  0  0  0  0  0  0  0  0  0  0
    5.8076   -1.1579    0.0000 C   0  0  0  0  0  0  0  0  0  0  0  0
    1.5842   -1.1579    0.0000 C   0  0  0  0  0  0  0  0  0  0  0  0
    5.8076   -1.9830    0.0000 C   0  0  0  0  0  0  0  0  0  0  0  0
    1.5842   -1.9830    0.0000 C   0  0  0  0  0  0  0  0  0  0  0  0
    0.0000    0.0000    0.0000 H   0  0  0  0  0  0  0  0  0  0  0  0
    0.0000    0.0000    0.0000 H   0  0  0  0  0  0  0  0  0  0  0  0
    0.0000    0.0000    0.0000 H   0  0  0  0  0  0  0  0  0  0  0  0
    0.0000    0.0000    0.0000 H   0  0  0  0  0  0  0  0  0  0  0  0
    0.0000    0.0000    0.0000 H   0  0  0  0  0  0  0  0  0  0  0  0
    0.0000    0.0000    0.0000 H   0  0  0  0  0  0  0  0  0  0  0  0
    0.0000    0.0000    0.0000 H   0  0  0  0  0  0  0  0  0  0  0  0
    0.0000    0.0000    0.0000 H   0  0  0  0  0  0  0  0  0  0  0  0
    0.0000    0.0000    0.0000 H   0  0  0  0  0  0  0  0  0  0  0  0
    0.0000    0.0000    0.0000 H   0  0  0  0  0  0  0  0  0  0  0  0
    0.0000    0.0000    0.0000 H   0  0  0  0  0  0  0  0  0  0  0  0
    0.0000    0.0000    0.0000 H   0  0  0  0  0  0  0  0  0  0  0  0
    0.0000    0.0000    0.0000 H   0  0  0  0  0  0  0  0  0  0  0  0
    0.0000    0.0000    0.0000 H   0  0  0  0  0  0  0  0  0  0  0  0
    0.0000    0.0000    0.0000 H   0  0  0  0  0  0  0  0  0  0  0  0
    0.0000    0.0000    0.0000 H   0  0  0  0  0  0  0  0  0  0  0  0
    0.0000    0.0000    0.0000 H   0  0  0  0  0  0  0  0  0  0  0  0
    0.0000    0.0000    0.0000 H   0  0  0  0  0  0  0  0  0  0  0  0
    0.0000    0.0000    0.0000 H   0  0  0  0  0  0  0  0  0  0  0  0
    0.0000    0.0000    0.0000 H   0  0  0  0  0  0  0  0  0  0  0  0
  1  9  1  0
  1 10  1  0
  2  4  1  0
  2  7  1  0
  2  8  1  0
  3  6  1  0
  3 15  1  0
  3 16  1  0
  4  5  1  0
  5  6  1  0
  7  9  2  0
  7 11  1  0
  8 10  2  0
  8 12  1  0
  9 13  1  0
 10 14  1  0
 11 17  2  0
 12 18  2  0
 13 19  2  0
 14 20  2  0
 17 19  1  0
 18 20  1  0
  4 21  1  0
  4 22  1  0
  5 23  1  0
  5 24  1  0
  6 25  1  0
  6 26  1  0
 11 27  1  0
 12 28  1  0
 13 29  1  0
 14 30  1  0
 15 31  1  0
 15 32  1  0
 15 33  1  0
 16 34  1  0
 16 35  1  0
 16 36  1  0
 17 37  1  0
 18 38  1  0
 19 39  1  0
 20 40  1  0
M  END
>  <ALOGPS_LOGP>  (1) 
4.63

>  <ALOGPS_LOGS>  (1) 
-4.14

>  <ALOGPS_SOLUBILITY>  (1) 
2.07e-02 g/l

>  <DATABASE_ID>  (1) 
DB00420

>  <DATABASE_NAME>  (1) 
drugbank

>  <DRUGBANK_ID>  (1) 
DB00420

>  <DRUG_GROUPS>  (1) 
approved; vet_approved

>  <EXACT_MASS>  (1) 
284.13471934

>  <FORMULA>  (1) 
C17H20N2S

>  <GENERIC_NAME>  (1) 
Promazine

>  <INCHI_IDENTIFIER>  (1) 
InChI=1S/C17H20N2S/c1-18(2)12-7-13-19-14-8-3-5-10-16(14)20-17-11-6-4-9-15(17)19/h3-6,8-11H,7,12-13H2,1-2H3

>  <INCHI_KEY>  (1) 
ZGUGWUXLJSTTMA-UHFFFAOYSA-N

>  <INTERNATIONAL_BRANDS>  (1) 
Prazine; Sparine; Talofen

>  <JCHEM_ACCEPTOR_COUNT>  (1) 
2

>  <JCHEM_AVERAGE_POLARIZABILITY>  (1) 
32.741980402245964

>  <JCHEM_BIOAVAILABILITY>  (1) 
1

>  <JCHEM_DONOR_COUNT>  (1) 
0

>  <JCHEM_FORMAL_CHARGE>  (1) 
0

>  <JCHEM_GHOSE_FILTER>  (1) 
1

>  <JCHEM_IUPAC>  (1) 
dimethyl[3-(10H-phenothiazin-10-yl)propyl]amine

>  <JCHEM_LOGP>  (1) 
3.9309555659999997

>  <JCHEM_MDDR_LIKE_RULE>  (1) 
0

>  <JCHEM_NUMBER_OF_RINGS>  (1) 
3

>  <JCHEM_PHYSIOLOGICAL_CHARGE>  (1) 
1

>  <JCHEM_PKA_STRONGEST_BASIC>  (1) 
9.19697678662742

>  <JCHEM_POLAR_SURFACE_AREA>  (1) 
6.48

>  <JCHEM_REFRACTIVITY>  (1) 
88.95150000000004

>  <JCHEM_ROTATABLE_BOND_COUNT>  (1) 
4

>  <JCHEM_RULE_OF_FIVE>  (1) 
1

>  <JCHEM_TRADITIONAL_IUPAC>  (1) 
promazine

>  <JCHEM_VEBER_RULE>  (1) 
1

>  <MOLECULAR_WEIGHT>  (1) 
284.419

>  <PRODUCTS>  (1) 
Promazine HCl Inj 50mg/ml

>  <SALTS>  (1) 
Promazine Hydrochloride

>  <SECONDARY_ACCESSION_NUMBERS>  (1) 
APRD00358

>  <SMILES>  (1) 
CN(C)CCCN1C2=CC=CC=C2SC2=CC=CC=C12

>  <SYNONYMS>  (1) 
Frenil; N,N-dimethyl-3-(10H-phenothiazin-10-yl)-propan-1-amine; Promazin; Promazina ; Promazine; Promazinum

$$$$
