953
     RDKit          2D

 39 41  0  0  0  0  0  0  0  0999 V2000
    6.5944   -1.5972    0.0000 N   0  0  0  0  0  0  0  0  0  0  0  0
    7.9142    1.4693    0.0000 N   0  0  0  0  0  0  0  0  0  0  0  0
    2.9558   -0.5207    0.0000 N   0  0  0  0  0  0  0  0  0  0  0  0
    2.8695   -1.3411    0.0000 N   0  0  0  0  0  0  0  0  0  0  0  0
    1.6500   -0.7982    0.0000 N   0  0  0  0  0  0  0  0  0  0  0  0
    6.5944   -0.2693    0.0000 C   0  0  0  0  0  0  0  0  0  0  0  0
    5.8137   -0.5207    0.0000 C   0  0  0  0  0  0  0  0  0  0  0  0
    6.8507    0.5149    0.0000 C   0  0  0  0  0  0  0  0  0  0  0  0
    5.8137   -1.3457    0.0000 C   0  0  0  0  0  0  0  0  0  0  0  0
    7.6580    0.6851    0.0000 C   0  0  0  0  0  0  0  0  0  0  0  0
    5.0993   -0.1082    0.0000 C   0  0  0  0  0  0  0  0  0  0  0  0
    7.0759   -0.9332    0.0000 C   0  0  0  0  0  0  0  0  0  0  0  0
    4.3847   -0.5207    0.0000 C   0  0  0  0  0  0  0  0  0  0  0  0
    5.0993   -1.7582    0.0000 C   0  0  0  0  0  0  0  0  0  0  0  0
    4.3847   -1.3457    0.0000 C   0  0  0  0  0  0  0  0  0  0  0  0
    3.6703   -0.1082    0.0000 C   0  0  0  0  0  0  0  0  0  0  0  0
    7.3633    2.0833    0.0000 C   0  0  0  0  0  0  0  0  0  0  0  0
    8.7215    1.6394    0.0000 C   0  0  0  0  0  0  0  0  0  0  0  0
    2.2021   -0.1851    0.0000 C   0  0  0  0  0  0  0  0  0  0  0  0
    2.0625   -1.5128    0.0000 C   0  0  0  0  0  0  0  0  0  0  0  0
    0.0000    0.0000    0.0000 H   0  0  0  0  0  0  0  0  0  0  0  0
    0.0000    0.0000    0.0000 H   0  0  0  0  0  0  0  0  0  0  0  0
    0.0000    0.0000    0.0000 H   0  0  0  0  0  0  0  0  0  0  0  0
    0.0000    0.0000    0.0000 H   0  0  0  0  0  0  0  0  0  0  0  0
    0.0000    0.0000    0.0000 H   0  0  0  0  0  0  0  0  0  0  0  0
    0.0000    0.0000    0.0000 H   0  0  0  0  0  0  0  0  0  0  0  0
    0.0000    0.0000    0.0000 H   0  0  0  0  0  0  0  0  0  0  0  0
    0.0000    0.0000    0.0000 H   0  0  0  0  0  0  0  0  0  0  0  0
    0.0000    0.0000    0.0000 H   0  0  0  0  0  0  0  0  0  0  0  0
    0.0000    0.0000    0.0000 H   0  0  0  0  0  0  0  0  0  0  0  0
    0.0000    0.0000    0.0000 H   0  0  0  0  0  0  0  0  0  0  0  0
    0.0000    0.0000    0.0000 H   0  0  0  0  0  0  0  0  0  0  0  0
    0.0000    0.0000    0.0000 H   0  0  0  0  0  0  0  0  0  0  0  0
    0.0000    0.0000    0.0000 H   0  0  0  0  0  0  0  0  0  0  0  0
    0.0000    0.0000    0.0000 H   0  0  0  0  0  0  0  0  0  0  0  0
    0.0000    0.0000    0.0000 H   0  0  0  0  0  0  0  0  0  0  0  0
    0.0000    0.0000    0.0000 H   0  0  0  0  0  0  0  0  0  0  0  0
    0.0000    0.0000    0.0000 H   0  0  0  0  0  0  0  0  0  0  0  0
    0.0000    0.0000    0.0000 H   0  0  0  0  0  0  0  0  0  0  0  0
  1  9  1  0
  1 12  1  0
  2 10  1  0
  2 17  1  0
  2 18  1  0
  3  4  1  0
  3 16  1  0
  3 19  1  0
  4 20  2  0
  5 19  2  0
  5 20  1  0
  6  7  1  0
  6  8  1  0
  6 12  2  0
  7  9  2  0
  7 11  1  0
  8 10  1  0
  9 14  1  0
 11 13  2  0
 13 15  1  0
 13 16  1  0
 14 15  2  0
  1 21  1  0
  8 22  1  0
  8 23  1  0
 10 24  1  0
 10 25  1  0
 11 26  1  0
 12 27  1  0
 14 28  1  0
 15 29  1  0
 16 30  1  0
 16 31  1  0
 17 32  1  0
 17 33  1  0
 17 34  1  0
 18 35  1  0
 18 36  1  0
 18 37  1  0
 19 38  1  0
 20 39  1  0
M  END
>  <ALOGPS_LOGP>  (1) 
1.67

>  <ALOGPS_LOGS>  (1) 
-2.90

>  <ALOGPS_SOLUBILITY>  (1) 
3.38e-01 g/l

>  <DATABASE_ID>  (1) 
DB00953

>  <DATABASE_NAME>  (1) 
drugbank

>  <DRUGBANK_ID>  (1) 
DB00953

>  <DRUG_GROUPS>  (1) 
approved

>  <EXACT_MASS>  (1) 
269.164045633

>  <FORMULA>  (1) 
C15H19N5

>  <GENERIC_NAME>  (1) 
Rizatriptan

>  <INCHI_IDENTIFIER>  (1) 
InChI=1S/C15H19N5/c1-19(2)6-5-13-8-17-15-4-3-12(7-14(13)15)9-20-11-16-10-18-20/h3-4,7-8,10-11,17H,5-6,9H2,1-2H3

>  <INCHI_KEY>  (1) 
ULFRLSNUDGIQQP-UHFFFAOYSA-N

>  <JCHEM_ACCEPTOR_COUNT>  (1) 
3

>  <JCHEM_AVERAGE_POLARIZABILITY>  (1) 
29.99984918373008

>  <JCHEM_BIOAVAILABILITY>  (1) 
1

>  <JCHEM_DONOR_COUNT>  (1) 
1

>  <JCHEM_FORMAL_CHARGE>  (1) 
0

>  <JCHEM_GHOSE_FILTER>  (1) 
1

>  <JCHEM_IUPAC>  (1) 
dimethyl({2-[5-(1H-1,2,4-triazol-1-ylmethyl)-1H-indol-3-yl]ethyl})amine

>  <JCHEM_LOGP>  (1) 
1.7678793143333331

>  <JCHEM_MDDR_LIKE_RULE>  (1) 
0

>  <JCHEM_NUMBER_OF_RINGS>  (1) 
3

>  <JCHEM_PHYSIOLOGICAL_CHARGE>  (1) 
1

>  <JCHEM_PKA_STRONGEST_ACIDIC>  (1) 
17.235220374974688

>  <JCHEM_PKA_STRONGEST_BASIC>  (1) 
9.55729800100579

>  <JCHEM_POLAR_SURFACE_AREA>  (1) 
49.74

>  <JCHEM_REFRACTIVITY>  (1) 
93.1323

>  <JCHEM_ROTATABLE_BOND_COUNT>  (1) 
5

>  <JCHEM_RULE_OF_FIVE>  (1) 
1

>  <JCHEM_TRADITIONAL_IUPAC>  (1) 
maxalt

>  <JCHEM_VEBER_RULE>  (1) 
0

>  <MOLECULAR_WEIGHT>  (1) 
269.3449

>  <PRODUCTS>  (1) 
Act Rizatriptan; Act Rizatriptan ODT; Apo-rizatriptan; Apo-rizatriptan Rpd; Auro-rizatriptan; Auro-rizatriptan ODT; Ccp-rizatriptan ODT; Dom-rizatriptan Rdt; Ipg-rizatriptan; Jamp-rizatriptan; Jamp-rizatriptan Ir; Jamp-rizatriptan ODT; Mar-rizatriptan; Mar-rizatriptan ODT; Maxalt; Maxalt Rpd; Maxalt-mlt; Mint-rizatriptan ODT; Mylan-rizatriptan; Mylan-rizatriptan ODT; Nat-rizatriptan; Nat-rizatriptan ODT; PMS-rizatriptan Rdt; Q-rizatriptan ODT; RIZATRIPTAN Benzoate; Riva-rizatriptan ODT; Rizaport; Rizatriptan; Rizatriptan Benzoate; Rizatriptan ODT; Rizatriptan Rdt; Rizatriptan benzoate; Sandoz Rizatriptan ODT; Teva-rizatriptan; Teva-rizatriptan ODT; Van-rizatriptan; Van-rizatriptan ODT

>  <SALTS>  (1) 
Rizatriptan benzoate

>  <SECONDARY_ACCESSION_NUMBERS>  (1) 
APRD00008

>  <SMILES>  (1) 
CN(C)CCC1=CNC2=C1C=C(CN1C=NC=N1)C=C2

>  <SYNONYMS>  (1) 
N,N-Dimethyl-2-[5-(1,2,4-triazol-1-ylmethyl)-1H-indol-3-yl]-ethanamine; N,N-Dimethyl-5-(1H-1,2,4-triazol-1-ylmethyl)-1H-indole-3-ethanamine; Risatriptan; Rizatript√°n; Rizatriptan; Rizatriptanum

$$$$
