344
     RDKit          2D

 41 43  0  0  0  0  0  0  0  0999 V2000
    2.5989   -1.7283    0.0000 N   0  0  0  0  0  0  0  0  0  0  0  0
    4.0276    0.7461    0.0000 C   0  0  0  0  0  0  0  0  0  0  0  0
    4.0276   -0.0786    0.0000 C   0  0  0  0  0  0  0  0  0  0  0  0
    4.7706    1.1040    0.0000 C   0  0  0  0  0  0  0  0  0  0  0  0
    3.2842    1.1040    0.0000 C   0  0  0  0  0  0  0  0  0  0  0  0
    3.3131   -0.4911    0.0000 C   0  0  0  0  0  0  0  0  0  0  0  0
    4.9542    1.9080    0.0000 C   0  0  0  0  0  0  0  0  0  0  0  0
    3.1007    1.9080    0.0000 C   0  0  0  0  0  0  0  0  0  0  0  0
    3.3130   -1.3158    0.0000 C   0  0  0  0  0  0  0  0  0  0  0  0
    5.3914    0.5102    0.0000 C   0  0  0  0  0  0  0  0  0  0  0  0
    2.6637    0.5102    0.0000 C   0  0  0  0  0  0  0  0  0  0  0  0
    4.4398    2.5530    0.0000 C   0  0  0  0  0  0  0  0  0  0  0  0
    3.6151    2.5530    0.0000 C   0  0  0  0  0  0  0  0  0  0  0  0
    5.7710    2.1739    0.0000 C   0  0  0  0  0  0  0  0  0  0  0  0
    2.2838    2.1739    0.0000 C   0  0  0  0  0  0  0  0  0  0  0  0
    6.2142    0.7568    0.0000 C   0  0  0  0  0  0  0  0  0  0  0  0
    1.8406    0.7568    0.0000 C   0  0  0  0  0  0  0  0  0  0  0  0
    6.4054    1.5946    0.0000 C   0  0  0  0  0  0  0  0  0  0  0  0
    1.6497    1.5947    0.0000 C   0  0  0  0  0  0  0  0  0  0  0  0
    2.5989   -2.5530    0.0000 C   0  0  0  0  0  0  0  0  0  0  0  0
    0.0000    0.0000    0.0000 H   0  0  0  0  0  0  0  0  0  0  0  0
    0.0000    0.0000    0.0000 H   0  0  0  0  0  0  0  0  0  0  0  0
    0.0000    0.0000    0.0000 H   0  0  0  0  0  0  0  0  0  0  0  0
    0.0000    0.0000    0.0000 H   0  0  0  0  0  0  0  0  0  0  0  0
    0.0000    0.0000    0.0000 H   0  0  0  0  0  0  0  0  0  0  0  0
    0.0000    0.0000    0.0000 H   0  0  0  0  0  0  0  0  0  0  0  0
    0.0000    0.0000    0.0000 H   0  0  0  0  0  0  0  0  0  0  0  0
    0.0000    0.0000    0.0000 H   0  0  0  0  0  0  0  0  0  0  0  0
    0.0000    0.0000    0.0000 H   0  0  0  0  0  0  0  0  0  0  0  0
    0.0000    0.0000    0.0000 H   0  0  0  0  0  0  0  0  0  0  0  0
    0.0000    0.0000    0.0000 H   0  0  0  0  0  0  0  0  0  0  0  0
    0.0000    0.0000    0.0000 H   0  0  0  0  0  0  0  0  0  0  0  0
    0.0000    0.0000    0.0000 H   0  0  0  0  0  0  0  0  0  0  0  0
    0.0000    0.0000    0.0000 H   0  0  0  0  0  0  0  0  0  0  0  0
    0.0000    0.0000    0.0000 H   0  0  0  0  0  0  0  0  0  0  0  0
    0.0000    0.0000    0.0000 H   0  0  0  0  0  0  0  0  0  0  0  0
    0.0000    0.0000    0.0000 H   0  0  0  0  0  0  0  0  0  0  0  0
    0.0000    0.0000    0.0000 H   0  0  0  0  0  0  0  0  0  0  0  0
    0.0000    0.0000    0.0000 H   0  0  0  0  0  0  0  0  0  0  0  0
    0.0000    0.0000    0.0000 H   0  0  0  0  0  0  0  0  0  0  0  0
    0.0000    0.0000    0.0000 H   0  0  0  0  0  0  0  0  0  0  0  0
  1  9  1  0
  1 20  1  0
  2  3  1  0
  2  4  1  0
  2  5  1  0
  3  6  1  0
  4  7  2  0
  4 10  1  0
  5  8  2  0
  5 11  1  0
  6  9  1  0
  7 12  1  0
  7 14  1  0
  8 13  1  0
  8 15  1  0
 10 16  2  0
 11 17  2  0
 12 13  2  0
 14 18  2  0
 15 19  2  0
 16 18  1  0
 17 19  1  0
  1 21  1  0
  2 22  1  0
  3 23  1  0
  3 24  1  0
  6 25  1  0
  6 26  1  0
  9 27  1  0
  9 28  1  0
 10 29  1  0
 11 30  1  0
 12 31  1  0
 13 32  1  0
 14 33  1  0
 15 34  1  0
 16 35  1  0
 17 36  1  0
 18 37  1  0
 19 38  1  0
 20 39  1  0
 20 40  1  0
 20 41  1  0
M  END
>  <ALOGPS_LOGP>  (1) 
4.65

>  <ALOGPS_LOGS>  (1) 
-6.06

>  <ALOGPS_SOLUBILITY>  (1) 
2.31e-04 g/l

>  <DATABASE_ID>  (1) 
DB00344

>  <DATABASE_NAME>  (1) 
drugbank

>  <DRUGBANK_ID>  (1) 
DB00344

>  <DRUG_GROUPS>  (1) 
approved

>  <EXACT_MASS>  (1) 
263.167399677

>  <FORMULA>  (1) 
C19H21N

>  <GENERIC_NAME>  (1) 
Protriptyline

>  <INCHI_IDENTIFIER>  (1) 
InChI=1S/C19H21N/c1-20-14-6-11-19-17-9-4-2-7-15(17)12-13-16-8-3-5-10-18(16)19/h2-5,7-10,12-13,19-20H,6,11,14H2,1H3

>  <INCHI_KEY>  (1) 
BWPIARFWQZKAIA-UHFFFAOYSA-N

>  <INTERNATIONAL_BRANDS>  (1) 
Triptil; Vivactil

>  <JCHEM_ACCEPTOR_COUNT>  (1) 
1

>  <JCHEM_AVERAGE_POLARIZABILITY>  (1) 
31.60441131093086

>  <JCHEM_BIOAVAILABILITY>  (1) 
1

>  <JCHEM_DONOR_COUNT>  (1) 
1

>  <JCHEM_FORMAL_CHARGE>  (1) 
0

>  <JCHEM_GHOSE_FILTER>  (1) 
1

>  <JCHEM_IUPAC>  (1) 
methyl(3-{tricyclo[9.4.0.0³,⁸]pentadeca-1(15),3,5,7,9,11,13-heptaen-2-yl}propyl)amine

>  <JCHEM_LOGP>  (1) 
4.496811469000001

>  <JCHEM_MDDR_LIKE_RULE>  (1) 
0

>  <JCHEM_NUMBER_OF_RINGS>  (1) 
3

>  <JCHEM_PHYSIOLOGICAL_CHARGE>  (1) 
1

>  <JCHEM_PKA_STRONGEST_BASIC>  (1) 
10.54323028083324

>  <JCHEM_POLAR_SURFACE_AREA>  (1) 
12.03

>  <JCHEM_REFRACTIVITY>  (1) 
87.30340000000004

>  <JCHEM_ROTATABLE_BOND_COUNT>  (1) 
4

>  <JCHEM_RULE_OF_FIVE>  (1) 
1

>  <JCHEM_TRADITIONAL_IUPAC>  (1) 
protriptyline

>  <JCHEM_VEBER_RULE>  (1) 
1

>  <MOLECULAR_WEIGHT>  (1) 
263.3767

>  <PRODUCTS>  (1) 
Protriptyline Hydrochloride; Protriptyline hydrochloride; Triptil Tab 10mg

>  <SALTS>  (1) 
Protriptyline hydrochloride

>  <SECONDARY_ACCESSION_NUMBERS>  (1) 
APRD00441

>  <SMILES>  (1) 
CNCCCC1C2=CC=CC=C2C=CC2=CC=CC=C12

>  <SYNONYMS>  (1) 
3-(5H-dibenzo[a,d][7]annulen-5-yl)-N-methylpropan-1-amine; Protriptilina; Protriptylin; Protriptyline; Protriptylinum

$$$$
