670
     RDKit          2D

 47 50  0  0  0  0  0  0  0  0999 V2000
    4.7423   -0.2440    0.0000 O   0  0  0  0  0  0  0  0  0  0  0  0
    3.2576    3.5435    0.0000 O   0  0  0  0  0  0  0  0  0  0  0  0
    3.3135   -1.0689    0.0000 N   0  0  0  0  0  0  0  0  0  0  0  0
    3.3135   -2.7186    0.0000 N   0  0  0  0  0  0  0  0  0  0  0  0
    4.0280    0.9934    0.0000 N   0  0  0  0  0  0  0  0  0  0  0  0
    4.4404    2.8003    0.0000 N   0  0  0  0  0  0  0  0  0  0  0  0
    5.3919    0.7572    0.0000 N   0  0  0  0  0  0  0  0  0  0  0  0
    2.5991   -1.4813    0.0000 C   0  0  0  0  0  0  0  0  0  0  0  0
    4.0280   -1.4813    0.0000 C   0  0  0  0  0  0  0  0  0  0  0  0
    2.5991   -2.3062    0.0000 C   0  0  0  0  0  0  0  0  0  0  0  0
    4.0280   -2.3062    0.0000 C   0  0  0  0  0  0  0  0  0  0  0  0
    3.3136   -0.2440    0.0000 C   0  0  0  0  0  0  0  0  0  0  0  0
    3.3135   -3.5435    0.0000 C   0  0  0  0  0  0  0  0  0  0  0  0
    4.0280    0.1685    0.0000 C   0  0  0  0  0  0  0  0  0  0  0  0
    3.2848    1.3512    0.0000 C   0  0  0  0  0  0  0  0  0  0  0  0
    4.7712    1.3512    0.0000 C   0  0  0  0  0  0  0  0  0  0  0  0
    3.1012    2.1554    0.0000 C   0  0  0  0  0  0  0  0  0  0  0  0
    4.9547    2.1554    0.0000 C   0  0  0  0  0  0  0  0  0  0  0  0
    2.6639    0.7572    0.0000 C   0  0  0  0  0  0  0  0  0  0  0  0
    3.6155    2.8003    0.0000 C   0  0  0  0  0  0  0  0  0  0  0  0
    2.2841    2.4214    0.0000 C   0  0  0  0  0  0  0  0  0  0  0  0
    5.7717    2.4213    0.0000 C   0  0  0  0  0  0  0  0  0  0  0  0
    1.8410    1.0042    0.0000 C   0  0  0  0  0  0  0  0  0  0  0  0
    1.6498    1.8419    0.0000 C   0  0  0  0  0  0  0  0  0  0  0  0
    6.4061    1.8418    0.0000 C   0  0  0  0  0  0  0  0  0  0  0  0
    6.2149    1.0041    0.0000 C   0  0  0  0  0  0  0  0  0  0  0  0
    0.0000    0.0000    0.0000 H   0  0  0  0  0  0  0  0  0  0  0  0
    0.0000    0.0000    0.0000 H   0  0  0  0  0  0  0  0  0  0  0  0
    0.0000    0.0000    0.0000 H   0  0  0  0  0  0  0  0  0  0  0  0
    0.0000    0.0000    0.0000 H   0  0  0  0  0  0  0  0  0  0  0  0
    0.0000    0.0000    0.0000 H   0  0  0  0  0  0  0  0  0  0  0  0
    0.0000    0.0000    0.0000 H   0  0  0  0  0  0  0  0  0  0  0  0
    0.0000    0.0000    0.0000 H   0  0  0  0  0  0  0  0  0  0  0  0
    0.0000    0.0000    0.0000 H   0  0  0  0  0  0  0  0  0  0  0  0
    0.0000    0.0000    0.0000 H   0  0  0  0  0  0  0  0  0  0  0  0
    0.0000    0.0000    0.0000 H   0  0  0  0  0  0  0  0  0  0  0  0
    0.0000    0.0000    0.0000 H   0  0  0  0  0  0  0  0  0  0  0  0
    0.0000    0.0000    0.0000 H   0  0  0  0  0  0  0  0  0  0  0  0
    0.0000    0.0000    0.0000 H   0  0  0  0  0  0  0  0  0  0  0  0
    0.0000    0.0000    0.0000 H   0  0  0  0  0  0  0  0  0  0  0  0
    0.0000    0.0000    0.0000 H   0  0  0  0  0  0  0  0  0  0  0  0
    0.0000    0.0000    0.0000 H   0  0  0  0  0  0  0  0  0  0  0  0
    0.0000    0.0000    0.0000 H   0  0  0  0  0  0  0  0  0  0  0  0
    0.0000    0.0000    0.0000 H   0  0  0  0  0  0  0  0  0  0  0  0
    0.0000    0.0000    0.0000 H   0  0  0  0  0  0  0  0  0  0  0  0
    0.0000    0.0000    0.0000 H   0  0  0  0  0  0  0  0  0  0  0  0
    0.0000    0.0000    0.0000 H   0  0  0  0  0  0  0  0  0  0  0  0
  1 14  2  0
  2 20  2  0
  3  8  1  0
  3  9  1  0
  3 12  1  0
  4 10  1  0
  4 11  1  0
  4 13  1  0
  5 14  1  0
  5 15  1  0
  5 16  1  0
  6 18  1  0
  6 20  1  0
  7 16  1  0
  7 26  2  0
  8 10  1  0
  9 11  1  0
 12 14  1  0
 15 17  2  0
 15 19  1  0
 16 18  2  0
 17 20  1  0
 17 21  1  0
 18 22  1  0
 19 23  2  0
 21 24  2  0
 22 25  2  0
 23 24  1  0
 25 26  1  0
  6 27  1  0
  8 28  1  0
  8 29  1  0
  9 30  1  0
  9 31  1  0
 10 32  1  0
 10 33  1  0
 11 34  1  0
 11 35  1  0
 12 36  1  0
 12 37  1  0
 13 38  1  0
 13 39  1  0
 13 40  1  0
 19 41  1  0
 21 42  1  0
 22 43  1  0
 23 44  1  0
 24 45  1  0
 25 46  1  0
 26 47  1  0
M  END
>  <ALOGPS_LOGP>  (1) 
1.26

>  <ALOGPS_LOGS>  (1) 
-2.71

>  <ALOGPS_SOLUBILITY>  (1) 
6.82e-01 g/l

>  <DATABASE_ID>  (1) 
DB00670

>  <DATABASE_NAME>  (1) 
drugbank

>  <DRUGBANK_ID>  (1) 
DB00670

>  <DRUG_GROUPS>  (1) 
approved

>  <EXACT_MASS>  (1) 
351.169524941

>  <FORMULA>  (1) 
C19H21N5O2

>  <GENERIC_NAME>  (1) 
Pirenzepine

>  <INCHI_IDENTIFIER>  (1) 
InChI=1S/C19H21N5O2/c1-22-9-11-23(12-10-22)13-17(25)24-16-7-3-2-5-14(16)19(26)21-15-6-4-8-20-18(15)24/h2-8H,9-13H2,1H3,(H,21,26)

>  <INCHI_KEY>  (1) 
RMHMFHUVIITRHF-UHFFFAOYSA-N

>  <INTERNATIONAL_BRANDS>  (1) 
Anquwei; Folinzepin; Garendopine; Gaspin; Gastrozepin; Gastsion; Gaszepin; Karoderin; Kawaipin; Kiccalzin; Lizepine; Lonzepin; Muszepin; Pilenzel; Pin; Pirepine; Pirodeine; Pizepine; Ranclic; Regastric; Stomazepin; Ulopine

>  <JCHEM_ACCEPTOR_COUNT>  (1) 
5

>  <JCHEM_AVERAGE_POLARIZABILITY>  (1) 
37.112802132135535

>  <JCHEM_BIOAVAILABILITY>  (1) 
1

>  <JCHEM_DONOR_COUNT>  (1) 
1

>  <JCHEM_FORMAL_CHARGE>  (1) 
0

>  <JCHEM_GHOSE_FILTER>  (1) 
1

>  <JCHEM_IUPAC>  (1) 
2-[2-(4-methylpiperazin-1-yl)acetyl]-2,4,9-triazatricyclo[9.4.0.0³,⁸]pentadeca-1(15),3(8),4,6,11,13-hexaen-10-one

>  <JCHEM_LOGP>  (1) 
0.8524512625648508

>  <JCHEM_MDDR_LIKE_RULE>  (1) 
0

>  <JCHEM_NUMBER_OF_RINGS>  (1) 
4

>  <JCHEM_PHYSIOLOGICAL_CHARGE>  (1) 
1

>  <JCHEM_PKA>  (1) 
16.00982979880011

>  <JCHEM_PKA_STRONGEST_ACIDIC>  (1) 
9.574185364235227

>  <JCHEM_PKA_STRONGEST_BASIC>  (1) 
7.592644342960564

>  <JCHEM_POLAR_SURFACE_AREA>  (1) 
68.78

>  <JCHEM_REFRACTIVITY>  (1) 
100.92570000000002

>  <JCHEM_ROTATABLE_BOND_COUNT>  (1) 
2

>  <JCHEM_RULE_OF_FIVE>  (1) 
1

>  <JCHEM_TRADITIONAL_IUPAC>  (1) 
pirenzepine

>  <JCHEM_VEBER_RULE>  (1) 
0

>  <MOLECULAR_WEIGHT>  (1) 
351.4023

>  <PRODUCTS>  (1) 
Gastrozepin Tab 50mg

>  <SALTS>  (1) 
Pirenzepine Hydrochloride

>  <SECONDARY_ACCESSION_NUMBERS>  (1) 
APRD00515

>  <SMILES>  (1) 
CN1CCN(CC(=O)N2C3=CC=CC=C3C(=O)NC3=C2N=CC=C3)CC1

>  <SYNONYMS>  (1) 
Pirenzepin; Pirenzepina; Pirenzépine; Pirenzepinum

$$$$
