438
     RDKit          2D

 59 62  0  0  1  0  0  0  0  0999 V2000
    5.2223    0.6701    0.0000 S   0  0  0  0  0  0  0  0  0  0  0  0
   10.8605    0.2613    0.0000 S   0  0  0  0  0  0  0  0  0  0  0  0
    7.3508    2.4956    0.0000 O   0  0  0  0  0  0  0  0  0  0  0  0
    4.5079    3.5576    0.0000 O   0  0  0  0  0  0  0  0  0  0  0  0
    5.9369    3.5576    0.0000 O   0  0  0  0  0  0  0  0  0  0  0  0
    8.3633    1.5030    0.0000 O   0  0  0  0  0  0  0  0  0  0  0  0
    7.7178   -0.8864    0.0000 O   0  0  0  0  0  0  0  0  0  0  0  0
    7.8697   -3.0638    0.0000 O   0  0  0  0  0  0  0  0  0  0  0  0
    6.4902   -2.6911    0.0000 O   0  0  0  0  0  0  0  0  0  0  0  0
    5.9369    1.9076    0.0000 N   0  0  0  0  0  0  0  0  0  0  0  0
    7.3508    0.4947    0.0000 N   0  0  0  0  0  0  0  0  0  0  0  0
    3.0790    1.9076    0.0000 N   0  0  0  0  0  0  0  0  0  0  0  0
    8.5152   -0.6745    0.0000 N   0  0  0  0  0  0  0  0  0  0  0  0
    9.8248    1.1034    0.0000 N   0  0  0  0  0  0  0  0  0  0  0  0
   11.1692    1.6987    0.0000 N   0  0  0  0  0  0  0  0  0  0  0  0
    5.9369    1.0826    0.0000 C   0  0  0  0  0  0  0  0  0  0  0  0
    6.7686    1.0792    0.0000 C   0  0  0  0  0  0  0  0  0  0  0  0
    6.7686    1.9110    0.0000 C   0  0  0  0  0  0  0  0  0  0  0  0
    5.2223    2.3201    0.0000 C   0  0  0  0  0  0  0  0  0  0  0  0
    4.5079    1.9076    0.0000 C   0  0  0  0  0  0  0  0  0  0  0  0
    4.5079    1.0826    0.0000 C   0  0  0  0  0  0  0  0  0  0  0  0
    3.7934    2.3201    0.0000 C   0  0  0  0  0  0  0  0  0  0  0  0
    5.2223    3.1451    0.0000 C   0  0  0  0  0  0  0  0  0  0  0  0
    8.1481    0.7065    0.0000 C   0  0  0  0  0  0  0  0  0  0  0  0
    8.7303    0.1219    0.0000 C   0  0  0  0  0  0  0  0  0  0  0  0
    3.0790    1.0826    0.0000 C   0  0  0  0  0  0  0  0  0  0  0  0
    2.3644    2.3201    0.0000 C   0  0  0  0  0  0  0  0  0  0  0  0
    9.5276    0.3339    0.0000 C   0  0  0  0  0  0  0  0  0  0  0  0
    2.3644    0.6701    0.0000 C   0  0  0  0  0  0  0  0  0  0  0  0
    1.6500    1.9076    0.0000 C   0  0  0  0  0  0  0  0  0  0  0  0
    1.6500    1.0826    0.0000 C   0  0  0  0  0  0  0  0  0  0  0  0
    7.5026   -1.6828    0.0000 C   0  0  0  0  0  0  0  0  0  0  0  0
   10.1677   -0.1866    0.0000 C   0  0  0  0  0  0  0  0  0  0  0  0
    6.7062   -1.4677    0.0000 C   0  0  0  0  0  0  0  0  0  0  0  0
    8.2991   -1.8980    0.0000 C   0  0  0  0  0  0  0  0  0  0  0  0
    7.2875   -2.4793    0.0000 C   0  0  0  0  0  0  0  0  0  0  0  0
   10.6487    1.0586    0.0000 C   0  0  0  0  0  0  0  0  0  0  0  0
    0.0000    0.0000    0.0000 H   0  0  0  0  0  0  0  0  0  0  0  0
    0.0000    0.0000    0.0000 H   0  0  0  0  0  0  0  0  0  0  0  0
    0.0000    0.0000    0.0000 H   0  0  0  0  0  0  0  0  0  0  0  0
    0.0000    0.0000    0.0000 H   0  0  0  0  0  0  0  0  0  0  0  0
    0.0000    0.0000    0.0000 H   0  0  0  0  0  0  0  0  0  0  0  0
    0.0000    0.0000    0.0000 H   0  0  0  0  0  0  0  0  0  0  0  0
    0.0000    0.0000    0.0000 H   0  0  0  0  0  0  0  0  0  0  0  0
    0.0000    0.0000    0.0000 H   0  0  0  0  0  0  0  0  0  0  0  0
    0.0000    0.0000    0.0000 H   0  0  0  0  0  0  0  0  0  0  0  0
    0.0000    0.0000    0.0000 H   0  0  0  0  0  0  0  0  0  0  0  0
    0.0000    0.0000    0.0000 H   0  0  0  0  0  0  0  0  0  0  0  0
    0.0000    0.0000    0.0000 H   0  0  0  0  0  0  0  0  0  0  0  0
    0.0000    0.0000    0.0000 H   0  0  0  0  0  0  0  0  0  0  0  0
    0.0000    0.0000    0.0000 H   0  0  0  0  0  0  0  0  0  0  0  0
    0.0000    0.0000    0.0000 H   0  0  0  0  0  0  0  0  0  0  0  0
    0.0000    0.0000    0.0000 H   0  0  0  0  0  0  0  0  0  0  0  0
    0.0000    0.0000    0.0000 H   0  0  0  0  0  0  0  0  0  0  0  0
    0.0000    0.0000    0.0000 H   0  0  0  0  0  0  0  0  0  0  0  0
    0.0000    0.0000    0.0000 H   0  0  0  0  0  0  0  0  0  0  0  0
    0.0000    0.0000    0.0000 H   0  0  0  0  0  0  0  0  0  0  0  0
    0.0000    0.0000    0.0000 H   0  0  0  0  0  0  0  0  0  0  0  0
    0.0000    0.0000    0.0000 H   0  0  0  0  0  0  0  0  0  0  0  0
  1 16  1  0
  1 21  1  0
  2 33  1  0
  2 37  1  0
  3 18  2  0
  4 23  1  0
  5 23  2  0
  6 24  2  0
  7 13  1  0
  7 32  1  0
  8 36  1  0
  9 36  2  0
 10 16  1  0
 10 18  1  0
 10 19  1  0
 17 11  1  1
 11 24  1  0
 12 22  1  0
 12 26  2  0
 12 27  1  0
 13 25  2  0
 14 28  1  0
 14 37  2  0
 15 37  1  0
 16 17  1  0
 17 18  1  0
 19 20  2  0
 19 23  1  0
 20 21  1  0
 20 22  1  0
 24 25  1  0
 25 28  1  0
 26 29  1  0
 27 30  2  0
 28 33  2  0
 29 31  2  0
 30 31  1  0
 32 34  1  0
 32 35  1  0
 32 36  1  0
  8 38  1  0
 11 39  1  0
 15 40  1  0
 15 41  1  0
 16 42  1  6
 17 43  1  0
 21 44  1  0
 21 45  1  0
 22 46  1  0
 22 47  1  0
 26 48  1  0
 27 49  1  0
 29 50  1  0
 30 51  1  0
 31 52  1  0
 33 53  1  0
 34 54  1  0
 34 55  1  0
 34 56  1  0
 35 57  1  0
 35 58  1  0
 35 59  1  0
M  CHG  2   4  -1  12   1
M  END
>  <ALOGPS_LOGP>  (1) 
-1.21

>  <ALOGPS_LOGS>  (1) 
-5.02

>  <ALOGPS_SOLUBILITY>  (1) 
5.73e-03 g/l

>  <DATABASE_ID>  (1) 
DB00438

>  <DATABASE_NAME>  (1) 
drugbank

>  <DRUGBANK_ID>  (1) 
DB00438

>  <DRUG_GROUPS>  (1) 
approved

>  <EXACT_MASS>  (1) 
546.099138468

>  <FORMULA>  (1) 
C22H22N6O7S2

>  <GENERIC_NAME>  (1) 
Ceftazidime

>  <INCHI_IDENTIFIER>  (1) 
InChI=1S/C22H22N6O7S2/c1-22(2,20(33)34)35-26-13(12-10-37-21(23)24-12)16(29)25-14-17(30)28-15(19(31)32)11(9-36-18(14)28)8-27-6-4-3-5-7-27/h3-7,10,14,18H,8-9H2,1-2H3,(H4-,23,24,25,29,31,32,33,34)/b26-13-/t14-,18-/m1/s1

>  <INCHI_KEY>  (1) 
ORFOPKXBNMVMKC-DWVKKRMSSA-N

>  <INTERNATIONAL_BRANDS>  (1) 
Cefzim; Ceptaz; Fortum; Tazidime; Veltadim

>  <JCHEM_ACCEPTOR_COUNT>  (1) 
10

>  <JCHEM_AVERAGE_POLARIZABILITY>  (1) 
51.05687027305248

>  <JCHEM_BIOAVAILABILITY>  (1) 
1

>  <JCHEM_DONOR_COUNT>  (1) 
3

>  <JCHEM_FORMAL_CHARGE>  (1) 
0

>  <JCHEM_GHOSE_FILTER>  (1) 
0

>  <JCHEM_IUPAC>  (1) 
1-{[(6R,7R)-7-[(2Z)-2-(2-amino-1,3-thiazol-4-yl)-2-[(1-carboxy-1-methylethoxy)imino]acetamido]-2-carboxylato-8-oxo-5-thia-1-azabicyclo[4.2.0]oct-2-en-3-yl]methyl}pyridin-1-ium

>  <JCHEM_LOGP>  (1) 
-4.1217156526121475

>  <JCHEM_MDDR_LIKE_RULE>  (1) 
1

>  <JCHEM_NUMBER_OF_RINGS>  (1) 
4

>  <JCHEM_PHYSIOLOGICAL_CHARGE>  (1) 
-1

>  <JCHEM_PKA>  (1) 
3.159095320990166

>  <JCHEM_PKA_STRONGEST_ACIDIC>  (1) 
2.768974344324722

>  <JCHEM_PKA_STRONGEST_BASIC>  (1) 
4.260694570217112

>  <JCHEM_POLAR_SURFACE_AREA>  (1) 
191.22

>  <JCHEM_REFRACTIVITY>  (1) 
143.8809

>  <JCHEM_ROTATABLE_BOND_COUNT>  (1) 
9

>  <JCHEM_RULE_OF_FIVE>  (1) 
0

>  <JCHEM_TRADITIONAL_IUPAC>  (1) 
ceftazidime

>  <JCHEM_VEBER_RULE>  (1) 
0

>  <MOLECULAR_WEIGHT>  (1) 
546.576

>  <PRODUCTS>  (1) 
Avycaz; Ceftazidime; Ceftazidime and Dextrose; Ceftazidime for Injection BP; Ceftazidime for Injection, BP; Ceftazidime for Injection, USP; Ceptaz Inj 10gm/vial; Ceptaz Inj 1gm/vial; Ceptaz Inj 2gm/vial; Ceptaz Injection  - Pws Im IV 1g/vial; Ceptaz Injection -  Pws IV  2gm/vial; Ceptaz Injection - Pws IV 10gm/vial; Fortaz; Fortaz - Inj 1g/vial; Fortaz - Inj 2g/vial; Fortaz - Inj 6g/vial; Fortaz Inj 1gm/vial; Fortaz Inj 2gm/vial; Fortaz Inj 500mg/vial; Fortaz Pws Inj 6gm/vial; Tazicef; Tazidime Add-vantage Inj 1.0gm/vial; Tazidime Add-vantage Inj 2gm/vial; Tazidime Inj 500mg/vial; Zavicefta Solution for Infusion

>  <SALTS>  (1) 
Ceftazidime pentahydrate; Ceftazidime sodium

>  <SECONDARY_ACCESSION_NUMBERS>  (1) 
APRD00857

>  <SMILES>  (1) 
[O-]C(=O)C1=C(CS[C@]2([H])[C@H](NC(=O)C(=N/OC(C)(C)C(O)=O)\C3=CSC(N)=N3)C(=O)N12)C[N+]1=CC=CC=C1

>  <SYNONYMS>  (1) 
CAZ; Ceftazidim; Ceftazidima; Ceftazidime; Ceftazidime anhydrous; Ceftazidimum

$$$$
