461
     RDKit          2D

 33 34  0  0  0  0  0  0  0  0999 V2000
    8.1336    1.2429    0.0000 O   0  0  0  0  0  0  0  0  0  0  0  0
    2.3641   -1.2516    0.0000 O   0  0  0  0  0  0  0  0  0  0  0  0
    4.5073   -0.0143    0.0000 C   0  0  0  0  0  0  0  0  0  0  0  0
    3.7929   -0.4267    0.0000 C   0  0  0  0  0  0  0  0  0  0  0  0
    5.9361   -0.0143    0.0000 C   0  0  0  0  0  0  0  0  0  0  0  0
    5.9361    0.8106    0.0000 C   0  0  0  0  0  0  0  0  0  0  0  0
    5.2216   -0.4267    0.0000 C   0  0  0  0  0  0  0  0  0  0  0  0
    3.0786   -0.0143    0.0000 C   0  0  0  0  0  0  0  0  0  0  0  0
    4.5073    0.8106    0.0000 C   0  0  0  0  0  0  0  0  0  0  0  0
    5.2216    1.2230    0.0000 C   0  0  0  0  0  0  0  0  0  0  0  0
    6.6734   -0.4553    0.0000 C   0  0  0  0  0  0  0  0  0  0  0  0
    6.6734    1.2516    0.0000 C   0  0  0  0  0  0  0  0  0  0  0  0
    7.4209    0.8278    0.0000 C   0  0  0  0  0  0  0  0  0  0  0  0
    7.4209   -0.0314    0.0000 C   0  0  0  0  0  0  0  0  0  0  0  0
    2.3641   -0.4267    0.0000 C   0  0  0  0  0  0  0  0  0  0  0  0
    1.6498   -0.0143    0.0000 C   0  0  0  0  0  0  0  0  0  0  0  0
    8.8496    0.8333    0.0000 C   0  0  0  0  0  0  0  0  0  0  0  0
    0.0000    0.0000    0.0000 H   0  0  0  0  0  0  0  0  0  0  0  0
    0.0000    0.0000    0.0000 H   0  0  0  0  0  0  0  0  0  0  0  0
    0.0000    0.0000    0.0000 H   0  0  0  0  0  0  0  0  0  0  0  0
    0.0000    0.0000    0.0000 H   0  0  0  0  0  0  0  0  0  0  0  0
    0.0000    0.0000    0.0000 H   0  0  0  0  0  0  0  0  0  0  0  0
    0.0000    0.0000    0.0000 H   0  0  0  0  0  0  0  0  0  0  0  0
    0.0000    0.0000    0.0000 H   0  0  0  0  0  0  0  0  0  0  0  0
    0.0000    0.0000    0.0000 H   0  0  0  0  0  0  0  0  0  0  0  0
    0.0000    0.0000    0.0000 H   0  0  0  0  0  0  0  0  0  0  0  0
    0.0000    0.0000    0.0000 H   0  0  0  0  0  0  0  0  0  0  0  0
    0.0000    0.0000    0.0000 H   0  0  0  0  0  0  0  0  0  0  0  0
    0.0000    0.0000    0.0000 H   0  0  0  0  0  0  0  0  0  0  0  0
    0.0000    0.0000    0.0000 H   0  0  0  0  0  0  0  0  0  0  0  0
    0.0000    0.0000    0.0000 H   0  0  0  0  0  0  0  0  0  0  0  0
    0.0000    0.0000    0.0000 H   0  0  0  0  0  0  0  0  0  0  0  0
    0.0000    0.0000    0.0000 H   0  0  0  0  0  0  0  0  0  0  0  0
  1 13  1  0
  1 17  1  0
  2 15  2  0
  3  4  1  0
  3  7  2  0
  3  9  1  0
  4  8  1  0
  5  6  2  0
  5  7  1  0
  5 11  1  0
  6 10  1  0
  6 12  1  0
  8 15  1  0
  9 10  2  0
 11 14  2  0
 12 13  2  0
 13 14  1  0
 15 16  1  0
  4 18  1  0
  4 19  1  0
  7 20  1  0
  8 21  1  0
  8 22  1  0
  9 23  1  0
 10 24  1  0
 11 25  1  0
 12 26  1  0
 14 27  1  0
 16 28  1  0
 16 29  1  0
 16 30  1  0
 17 31  1  0
 17 32  1  0
 17 33  1  0
M  END
>  <ALOGPS_LOGP>  (1) 
3.41

>  <ALOGPS_LOGS>  (1) 
-5.07

>  <ALOGPS_SOLUBILITY>  (1) 
1.93e-03 g/l

>  <DATABASE_ID>  (1) 
DB00461

>  <DATABASE_NAME>  (1) 
drugbank

>  <DRUGBANK_ID>  (1) 
DB00461

>  <DRUG_GROUPS>  (1) 
approved

>  <EXACT_MASS>  (1) 
228.115029756

>  <FORMULA>  (1) 
C15H16O2

>  <GENERIC_NAME>  (1) 
Nabumetone

>  <INCHI_IDENTIFIER>  (1) 
InChI=1S/C15H16O2/c1-11(16)3-4-12-5-6-14-10-15(17-2)8-7-13(14)9-12/h5-10H,3-4H2,1-2H3

>  <INCHI_KEY>  (1) 
BLXXJMDCKKHMKV-UHFFFAOYSA-N

>  <INTERNATIONAL_BRANDS>  (1) 
Arthaxan; Balmox; Dolsinal; Listran; Mebutan; Nabuser; Relafen; Relif; Relifen; Relifex

>  <JCHEM_ACCEPTOR_COUNT>  (1) 
2

>  <JCHEM_AVERAGE_POLARIZABILITY>  (1) 
26.165625730820228

>  <JCHEM_BIOAVAILABILITY>  (1) 
1

>  <JCHEM_DONOR_COUNT>  (1) 
0

>  <JCHEM_FORMAL_CHARGE>  (1) 
0

>  <JCHEM_GHOSE_FILTER>  (1) 
1

>  <JCHEM_IUPAC>  (1) 
4-(6-methoxynaphthalen-2-yl)butan-2-one

>  <JCHEM_LOGP>  (1) 
3.2169937839999996

>  <JCHEM_MDDR_LIKE_RULE>  (1) 
0

>  <JCHEM_NUMBER_OF_RINGS>  (1) 
2

>  <JCHEM_PHYSIOLOGICAL_CHARGE>  (1) 
0

>  <JCHEM_PKA_STRONGEST_ACIDIC>  (1) 
19.591539825276776

>  <JCHEM_PKA_STRONGEST_BASIC>  (1) 
-4.826872761363677

>  <JCHEM_POLAR_SURFACE_AREA>  (1) 
26.3

>  <JCHEM_REFRACTIVITY>  (1) 
68.43110000000001

>  <JCHEM_ROTATABLE_BOND_COUNT>  (1) 
4

>  <JCHEM_RULE_OF_FIVE>  (1) 
1

>  <JCHEM_TRADITIONAL_IUPAC>  (1) 
nabumetone

>  <JCHEM_VEBER_RULE>  (1) 
1

>  <MOLECULAR_WEIGHT>  (1) 
228.2863

>  <PRODUCTS>  (1) 
Mylan-nabumetone; Nabumetone; Nabumetone-500; Nu-nabumetone; PMS-nabumetone; Relafen Tablets 500mg; Relafen Tablets 750mg; Sandoz Nabumetone; Teva-nabumetone

>  <SECONDARY_ACCESSION_NUMBERS>  (1) 
APRD01128

>  <SMILES>  (1) 
COC1=CC2=C(C=C1)C=C(CCC(C)=O)C=C2

>  <SYNONYMS>  (1) 
Nabumeton; Nabumetona; Nabum√©tone; Nabumetone; Nabumetonum

$$$$
