211
     RDKit          2D

 36 36  0  0  1  0  0  0  0  0999 V2000
    3.0791    0.3630    0.0000 O   0  0  0  0  0  0  0  0  0  0  0  0
    2.3645   -0.8745    0.0000 O   0  0  0  0  0  0  0  0  0  0  0  0
    5.2224   -2.5246    0.0000 O   0  0  0  0  0  0  0  0  0  0  0  0
    5.9370    1.1880    0.0000 O   0  0  0  0  0  0  0  0  0  0  0  0
    4.5080    1.1880    0.0000 N   0  0  0  0  0  0  0  0  0  0  0  0
    5.9370    2.8381    0.0000 N   0  0  0  0  0  0  0  0  0  0  0  0
    3.7935   -0.0495    0.0000 C   0  0  0  0  0  0  0  0  0  0  0  0
    3.7935   -0.8745    0.0000 C   0  0  0  0  0  0  0  0  0  0  0  0
    4.5080    0.3630    0.0000 C   0  0  0  0  0  0  0  0  0  0  0  0
    3.0791   -1.2870    0.0000 C   0  0  0  0  0  0  0  0  0  0  0  0
    4.5080   -1.2870    0.0000 C   0  0  0  0  0  0  0  0  0  0  0  0
    4.5080   -2.1120    0.0000 C   0  0  0  0  0  0  0  0  0  0  0  0
    3.0791   -2.1120    0.0000 C   0  0  0  0  0  0  0  0  0  0  0  0
    3.7935   -2.5246    0.0000 C   0  0  0  0  0  0  0  0  0  0  0  0
    5.2224    1.6005    0.0000 C   0  0  0  0  0  0  0  0  0  0  0  0
    5.2224    2.4256    0.0000 C   0  0  0  0  0  0  0  0  0  0  0  0
    1.6500   -1.2870    0.0000 C   0  0  0  0  0  0  0  0  0  0  0  0
    5.2224   -3.3496    0.0000 C   0  0  0  0  0  0  0  0  0  0  0  0
    0.0000    0.0000    0.0000 H   0  0  0  0  0  0  0  0  0  0  0  0
    0.0000    0.0000    0.0000 H   0  0  0  0  0  0  0  0  0  0  0  0
    0.0000    0.0000    0.0000 H   0  0  0  0  0  0  0  0  0  0  0  0
    0.0000    0.0000    0.0000 H   0  0  0  0  0  0  0  0  0  0  0  0
    0.0000    0.0000    0.0000 H   0  0  0  0  0  0  0  0  0  0  0  0
    0.0000    0.0000    0.0000 H   0  0  0  0  0  0  0  0  0  0  0  0
    0.0000    0.0000    0.0000 H   0  0  0  0  0  0  0  0  0  0  0  0
    0.0000    0.0000    0.0000 H   0  0  0  0  0  0  0  0  0  0  0  0
    0.0000    0.0000    0.0000 H   0  0  0  0  0  0  0  0  0  0  0  0
    0.0000    0.0000    0.0000 H   0  0  0  0  0  0  0  0  0  0  0  0
    0.0000    0.0000    0.0000 H   0  0  0  0  0  0  0  0  0  0  0  0
    0.0000    0.0000    0.0000 H   0  0  0  0  0  0  0  0  0  0  0  0
    0.0000    0.0000    0.0000 H   0  0  0  0  0  0  0  0  0  0  0  0
    0.0000    0.0000    0.0000 H   0  0  0  0  0  0  0  0  0  0  0  0
    0.0000    0.0000    0.0000 H   0  0  0  0  0  0  0  0  0  0  0  0
    0.0000    0.0000    0.0000 H   0  0  0  0  0  0  0  0  0  0  0  0
    0.0000    0.0000    0.0000 H   0  0  0  0  0  0  0  0  0  0  0  0
    0.0000    0.0000    0.0000 H   0  0  0  0  0  0  0  0  0  0  0  0
  1  7  1  0
  2 10  1  0
  2 17  1  0
  3 12  1  0
  3 18  1  0
  4 15  2  0
  5  9  1  0
  5 15  1  0
  6 16  1  0
  7  8  1  0
  7  9  1  0
  8 10  2  0
  8 11  1  0
 10 13  1  0
 11 12  2  0
 12 14  1  0
 13 14  2  0
 15 16  1  0
  1 19  1  0
  5 20  1  0
  6 21  1  0
  6 22  1  0
  7 23  1  0
  9 24  1  0
  9 25  1  0
 11 26  1  0
 13 27  1  0
 14 28  1  0
 16 29  1  0
 16 30  1  0
 17 31  1  0
 17 32  1  0
 17 33  1  0
 18 34  1  0
 18 35  1  0
 18 36  1  0
M  END
>  <ALOGPS_LOGP>  (1) 
-0.49

>  <ALOGPS_LOGS>  (1) 
-1.76

>  <ALOGPS_SOLUBILITY>  (1) 
4.45e+00 g/l

>  <DATABASE_ID>  (1) 
DB00211

>  <DATABASE_NAME>  (1) 
drugbank

>  <DRUGBANK_ID>  (1) 
DB00211

>  <DRUG_GROUPS>  (1) 
approved

>  <EXACT_MASS>  (1) 
254.126657074

>  <FORMULA>  (1) 
C12H18N2O4

>  <GENERIC_NAME>  (1) 
Midodrine

>  <INCHI_IDENTIFIER>  (1) 
InChI=1S/C12H18N2O4/c1-17-8-3-4-11(18-2)9(5-8)10(15)7-14-12(16)6-13/h3-5,10,15H,6-7,13H2,1-2H3,(H,14,16)

>  <INCHI_KEY>  (1) 
PTKSEFOSCHHMPD-UHFFFAOYSA-N

>  <JCHEM_ACCEPTOR_COUNT>  (1) 
5

>  <JCHEM_AVERAGE_POLARIZABILITY>  (1) 
26.649608228886468

>  <JCHEM_BIOAVAILABILITY>  (1) 
1

>  <JCHEM_DONOR_COUNT>  (1) 
3

>  <JCHEM_FORMAL_CHARGE>  (1) 
0

>  <JCHEM_GHOSE_FILTER>  (1) 
0

>  <JCHEM_IUPAC>  (1) 
2-amino-N-[2-(2,5-dimethoxyphenyl)-2-hydroxyethyl]acetamide

>  <JCHEM_LOGP>  (1) 
-0.9519464609999999

>  <JCHEM_MDDR_LIKE_RULE>  (1) 
0

>  <JCHEM_NUMBER_OF_RINGS>  (1) 
1

>  <JCHEM_PHYSIOLOGICAL_CHARGE>  (1) 
1

>  <JCHEM_PKA>  (1) 
15.25703281593573

>  <JCHEM_PKA_STRONGEST_ACIDIC>  (1) 
13.765053491042249

>  <JCHEM_PKA_STRONGEST_BASIC>  (1) 
8.139313298334233

>  <JCHEM_POLAR_SURFACE_AREA>  (1) 
93.80999999999999

>  <JCHEM_REFRACTIVITY>  (1) 
66.22380000000001

>  <JCHEM_ROTATABLE_BOND_COUNT>  (1) 
6

>  <JCHEM_RULE_OF_FIVE>  (1) 
1

>  <JCHEM_TRADITIONAL_IUPAC>  (1) 
midodrine

>  <JCHEM_VEBER_RULE>  (1) 
0

>  <MOLECULAR_WEIGHT>  (1) 
254.2823

>  <PRODUCTS>  (1) 
Amatine; Midodrine; Midodrine HCl; Midodrine Hydrochloride; ProAmatine

>  <SALTS>  (1) 
Midodrine hydrochloride

>  <SECONDARY_ACCESSION_NUMBERS>  (1) 
APRD01116

>  <SMILES>  (1) 
COC1=CC(C(O)CNC(=O)CN)=C(OC)C=C1

>  <SYNONYMS>  (1) 
(+-)-2-amino-N-(beta-hydroxy-2,5-dimethoxyphenethyl)acetamide; Midodrin; Midodrina; Midodrinum

$$$$
