915
     RDKit          2D

 28 30  0  0  0  0  0  0  0  0999 V2000
    3.1364    1.3022    0.0000 N   0  0  0  0  0  0  0  0  0  0  0  0
    3.1364    0.4484    0.0000 C   0  0  0  0  0  0  0  0  0  0  0  0
    3.8503   -0.7882    0.0000 C   0  0  0  0  0  0  0  0  0  0  0  0
    2.5461   -1.1598    0.0000 C   0  0  0  0  0  0  0  0  0  0  0  0
    2.4222   -0.7882    0.0000 C   0  0  0  0  0  0  0  0  0  0  0  0
    3.8503    0.0361    0.0000 C   0  0  0  0  0  0  0  0  0  0  0  0
    2.5461   -0.2672    0.0000 C   0  0  0  0  0  0  0  0  0  0  0  0
    2.4222    0.0361    0.0000 C   0  0  0  0  0  0  0  0  0  0  0  0
    3.3196   -1.5668    0.0000 C   0  0  0  0  0  0  0  0  0  0  0  0
    3.1364   -1.0469    0.0000 C   0  0  0  0  0  0  0  0  0  0  0  0
    1.7077   -1.2006    0.0000 C   0  0  0  0  0  0  0  0  0  0  0  0
    0.0000    0.0000    0.0000 H   0  0  0  0  0  0  0  0  0  0  0  0
    0.0000    0.0000    0.0000 H   0  0  0  0  0  0  0  0  0  0  0  0
    0.0000    0.0000    0.0000 H   0  0  0  0  0  0  0  0  0  0  0  0
    0.0000    0.0000    0.0000 H   0  0  0  0  0  0  0  0  0  0  0  0
    0.0000    0.0000    0.0000 H   0  0  0  0  0  0  0  0  0  0  0  0
    0.0000    0.0000    0.0000 H   0  0  0  0  0  0  0  0  0  0  0  0
    0.0000    0.0000    0.0000 H   0  0  0  0  0  0  0  0  0  0  0  0
    0.0000    0.0000    0.0000 H   0  0  0  0  0  0  0  0  0  0  0  0
    0.0000    0.0000    0.0000 H   0  0  0  0  0  0  0  0  0  0  0  0
    0.0000    0.0000    0.0000 H   0  0  0  0  0  0  0  0  0  0  0  0
    0.0000    0.0000    0.0000 H   0  0  0  0  0  0  0  0  0  0  0  0
    0.0000    0.0000    0.0000 H   0  0  0  0  0  0  0  0  0  0  0  0
    0.0000    0.0000    0.0000 H   0  0  0  0  0  0  0  0  0  0  0  0
    0.0000    0.0000    0.0000 H   0  0  0  0  0  0  0  0  0  0  0  0
    0.0000    0.0000    0.0000 H   0  0  0  0  0  0  0  0  0  0  0  0
    0.0000    0.0000    0.0000 H   0  0  0  0  0  0  0  0  0  0  0  0
    0.0000    0.0000    0.0000 H   0  0  0  0  0  0  0  0  0  0  0  0
  1  2  1  0
  2  6  1  0
  2  7  1  0
  2  8  1  0
  3  6  1  0
  3  9  1  0
  3 10  1  0
  4  7  1  0
  4  9  1  0
  4 11  1  0
  5  8  1  0
  5 10  1  0
  5 11  1  0
  1 12  1  0
  1 13  1  0
  3 14  1  0
  4 15  1  0
  5 16  1  0
  6 17  1  0
  6 18  1  0
  7 19  1  0
  7 20  1  0
  8 21  1  0
  8 22  1  0
  9 23  1  0
  9 24  1  0
 10 25  1  0
 10 26  1  0
 11 27  1  0
 11 28  1  0
M  END
>  <ALOGPS_LOGP>  (1) 
2.53

>  <ALOGPS_LOGS>  (1) 
-3.25

>  <ALOGPS_SOLUBILITY>  (1) 
8.46e-02 g/l

>  <DATABASE_ID>  (1) 
DB00915

>  <DATABASE_NAME>  (1) 
drugbank

>  <DRUGBANK_ID>  (1) 
DB00915

>  <DRUG_GROUPS>  (1) 
approved

>  <EXACT_MASS>  (1) 
151.136099549

>  <FORMULA>  (1) 
C10H17N

>  <GENERIC_NAME>  (1) 
Amantadine

>  <INCHI_IDENTIFIER>  (1) 
InChI=1S/C10H17N/c11-10-4-7-1-8(5-10)3-9(2-7)6-10/h7-9H,1-6,11H2

>  <INCHI_KEY>  (1) 
DKNWSYNQZKUICI-UHFFFAOYSA-N

>  <INTERNATIONAL_BRANDS>  (1) 
PK-Merz; Symmetrel

>  <JCHEM_ACCEPTOR_COUNT>  (1) 
1

>  <JCHEM_AVERAGE_POLARIZABILITY>  (1) 
17.917499069606556

>  <JCHEM_BIOAVAILABILITY>  (1) 
1

>  <JCHEM_DONOR_COUNT>  (1) 
1

>  <JCHEM_FORMAL_CHARGE>  (1) 
0

>  <JCHEM_GHOSE_FILTER>  (1) 
0

>  <JCHEM_IUPAC>  (1) 
adamantan-1-amine

>  <JCHEM_LOGP>  (1) 
1.4659475483333333

>  <JCHEM_MDDR_LIKE_RULE>  (1) 
0

>  <JCHEM_NUMBER_OF_RINGS>  (1) 
3

>  <JCHEM_PHYSIOLOGICAL_CHARGE>  (1) 
1

>  <JCHEM_PKA_STRONGEST_BASIC>  (1) 
10.711877522320835

>  <JCHEM_POLAR_SURFACE_AREA>  (1) 
26.02

>  <JCHEM_REFRACTIVITY>  (1) 
45.535599999999995

>  <JCHEM_ROTATABLE_BOND_COUNT>  (1) 
0

>  <JCHEM_RULE_OF_FIVE>  (1) 
1

>  <JCHEM_TRADITIONAL_IUPAC>  (1) 
amantadine

>  <JCHEM_VEBER_RULE>  (1) 
1

>  <MOLECULAR_WEIGHT>  (1) 
151.2487

>  <PRODUCTS>  (1) 
Amantadine; Amantadine HCl; Amantadine Hydrochloride; Amantadine hydrochloride; Dom-amantadine Hydrochloride Capsules-100mg; Endantadine; Endantadine Cap 100mg; Gapeam Budibac; Gocovri; Med-amantidine - Cap 100mg; Mylan-amantadine; PHL-amantadine; PHL-amantadine Syrup 10mg/ml; Pdp-amantadine Hydrochloride Capsules; Pdp-amantadine Hydrochloride Syrup; Symmetrel Capsules 100mg; Symmetrel Syrup 10mg/ml

>  <SALTS>  (1) 
Amantadine hydrochloride; Amantadine sulfate

>  <SECONDARY_ACCESSION_NUMBERS>  (1) 
APRD00787

>  <SMILES>  (1) 
NC12CC3CC(CC(C3)C1)C2

>  <SYNONYMS>  (1) 
1-adamantanamine; 1-adamantylamine; 1-aminoadamantane; Amantidine; Aminoadamantane

$$$$
