775
     RDKit          2D

 66 67  0  0  1  0  0  0  0  0999 V2000
    7.0944    3.3001    0.0000 S   0  0  0  0  0  0  0  0  0  0  0  0
    5.6655   -1.6500    0.0000 O   0  0  0  0  0  0  0  0  0  0  0  0
    7.5069    2.5856    0.0000 O   0  0  0  0  0  0  0  0  0  0  0  0
    6.6819    4.0145    0.0000 O   0  0  0  0  0  0  0  0  0  0  0  0
    7.8089    2.0625    0.0000 O   0  0  0  0  0  0  0  0  0  0  0  0
    7.0944    0.8250    0.0000 O   0  0  0  0  0  0  0  0  0  0  0  0
    2.0930   -5.3626    0.0000 N   0  0  0  0  0  0  0  0  0  0  0  0
    6.3799    2.8876    0.0000 N   0  0  0  0  0  0  0  0  0  0  0  0
    3.5220   -4.5376    0.0000 C   0  0  0  0  0  0  0  0  0  0  0  0
    3.5220   -5.3626    0.0000 C   0  0  0  0  0  0  0  0  0  0  0  0
    2.8075   -4.1251    0.0000 C   0  0  0  0  0  0  0  0  0  0  0  0
    4.2365   -4.1251    0.0000 C   0  0  0  0  0  0  0  0  0  0  0  0
    2.8075   -5.7751    0.0000 C   0  0  0  0  0  0  0  0  0  0  0  0
    2.0930   -4.5376    0.0000 C   0  0  0  0  0  0  0  0  0  0  0  0
    4.2365   -3.3001    0.0000 C   0  0  0  0  0  0  0  0  0  0  0  0
    4.9509   -2.8876    0.0000 C   0  0  0  0  0  0  0  0  0  0  0  0
    4.9509   -2.0625    0.0000 C   0  0  0  0  0  0  0  0  0  0  0  0
    6.3799    2.0625    0.0000 C   0  0  0  0  0  0  0  0  0  0  0  0
    5.6655    1.6500    0.0000 C   0  0  0  0  0  0  0  0  0  0  0  0
    7.8089    3.7126    0.0000 C   0  0  0  0  0  0  0  0  0  0  0  0
    5.6655   -0.8250    0.0000 C   0  0  0  0  0  0  0  0  0  0  0  0
    7.8089    4.5376    0.0000 C   0  0  0  0  0  0  0  0  0  0  0  0
    5.6655    0.8250    0.0000 C   0  0  0  0  0  0  0  0  0  0  0  0
    8.5234    4.9501    0.0000 C   0  0  0  0  0  0  0  0  0  0  0  0
    6.3799   -0.4125    0.0000 C   0  0  0  0  0  0  0  0  0  0  0  0
    4.9509   -0.4125    0.0000 C   0  0  0  0  0  0  0  0  0  0  0  0
    6.3799    0.4125    0.0000 C   0  0  0  0  0  0  0  0  0  0  0  0
    4.9509    0.4125    0.0000 C   0  0  0  0  0  0  0  0  0  0  0  0
    7.0944    1.6500    0.0000 C   0  0  0  0  0  0  0  0  0  0  0  0
    8.5234    5.7751    0.0000 C   0  0  0  0  0  0  0  0  0  0  0  0
    0.0000    0.0000    0.0000 H   0  0  0  0  0  0  0  0  0  0  0  0
    0.0000    0.0000    0.0000 H   0  0  0  0  0  0  0  0  0  0  0  0
    0.0000    0.0000    0.0000 H   0  0  0  0  0  0  0  0  0  0  0  0
    0.0000    0.0000    0.0000 H   0  0  0  0  0  0  0  0  0  0  0  0
    0.0000    0.0000    0.0000 H   0  0  0  0  0  0  0  0  0  0  0  0
    0.0000    0.0000    0.0000 H   0  0  0  0  0  0  0  0  0  0  0  0
    0.0000    0.0000    0.0000 H   0  0  0  0  0  0  0  0  0  0  0  0
    0.0000    0.0000    0.0000 H   0  0  0  0  0  0  0  0  0  0  0  0
    0.0000    0.0000    0.0000 H   0  0  0  0  0  0  0  0  0  0  0  0
    0.0000    0.0000    0.0000 H   0  0  0  0  0  0  0  0  0  0  0  0
    0.0000    0.0000    0.0000 H   0  0  0  0  0  0  0  0  0  0  0  0
    0.0000    0.0000    0.0000 H   0  0  0  0  0  0  0  0  0  0  0  0
    0.0000    0.0000    0.0000 H   0  0  0  0  0  0  0  0  0  0  0  0
    0.0000    0.0000    0.0000 H   0  0  0  0  0  0  0  0  0  0  0  0
    0.0000    0.0000    0.0000 H   0  0  0  0  0  0  0  0  0  0  0  0
    0.0000    0.0000    0.0000 H   0  0  0  0  0  0  0  0  0  0  0  0
    0.0000    0.0000    0.0000 H   0  0  0  0  0  0  0  0  0  0  0  0
    0.0000    0.0000    0.0000 H   0  0  0  0  0  0  0  0  0  0  0  0
    0.0000    0.0000    0.0000 H   0  0  0  0  0  0  0  0  0  0  0  0
    0.0000    0.0000    0.0000 H   0  0  0  0  0  0  0  0  0  0  0  0
    0.0000    0.0000    0.0000 H   0  0  0  0  0  0  0  0  0  0  0  0
    0.0000    0.0000    0.0000 H   0  0  0  0  0  0  0  0  0  0  0  0
    0.0000    0.0000    0.0000 H   0  0  0  0  0  0  0  0  0  0  0  0
    0.0000    0.0000    0.0000 H   0  0  0  0  0  0  0  0  0  0  0  0
    0.0000    0.0000    0.0000 H   0  0  0  0  0  0  0  0  0  0  0  0
    0.0000    0.0000    0.0000 H   0  0  0  0  0  0  0  0  0  0  0  0
    0.0000    0.0000    0.0000 H   0  0  0  0  0  0  0  0  0  0  0  0
    0.0000    0.0000    0.0000 H   0  0  0  0  0  0  0  0  0  0  0  0
    0.0000    0.0000    0.0000 H   0  0  0  0  0  0  0  0  0  0  0  0
    0.0000    0.0000    0.0000 H   0  0  0  0  0  0  0  0  0  0  0  0
    0.0000    0.0000    0.0000 H   0  0  0  0  0  0  0  0  0  0  0  0
    0.0000    0.0000    0.0000 H   0  0  0  0  0  0  0  0  0  0  0  0
    0.0000    0.0000    0.0000 H   0  0  0  0  0  0  0  0  0  0  0  0
    0.0000    0.0000    0.0000 H   0  0  0  0  0  0  0  0  0  0  0  0
    0.0000    0.0000    0.0000 H   0  0  0  0  0  0  0  0  0  0  0  0
    0.0000    0.0000    0.0000 H   0  0  0  0  0  0  0  0  0  0  0  0
  1  3  2  0
  1  4  2  0
  1  8  1  0
  1 20  1  0
  2 17  1  0
  2 21  1  0
  5 29  1  0
  6 29  2  0
  7 13  1  0
  7 14  1  0
 18  8  1  6
  9 10  1  0
  9 11  1  0
  9 12  1  0
 10 13  1  0
 11 14  1  0
 12 15  1  0
 15 16  1  0
 16 17  1  0
 18 19  1  0
 18 29  1  0
 19 23  1  0
 20 22  1  0
 21 25  2  0
 21 26  1  0
 22 24  1  0
 23 27  2  0
 23 28  1  0
 24 30  1  0
 25 27  1  0
 26 28  2  0
  5 31  1  0
  7 32  1  0
  8 33  1  0
  9 34  1  0
 10 35  1  0
 10 36  1  0
 11 37  1  0
 11 38  1  0
 12 39  1  0
 12 40  1  0
 13 41  1  0
 13 42  1  0
 14 43  1  0
 14 44  1  0
 15 45  1  0
 15 46  1  0
 16 47  1  0
 16 48  1  0
 17 49  1  0
 17 50  1  0
 18 51  1  0
 19 52  1  0
 19 53  1  0
 20 54  1  0
 20 55  1  0
 22 56  1  0
 22 57  1  0
 24 58  1  0
 24 59  1  0
 25 60  1  0
 26 61  1  0
 27 62  1  0
 28 63  1  0
 30 64  1  0
 30 65  1  0
 30 66  1  0
M  END
>  <ALOGPS_LOGP>  (1) 
1.78

>  <ALOGPS_LOGS>  (1) 
-5.14

>  <ALOGPS_SOLUBILITY>  (1) 
3.17e-03 g/l

>  <DATABASE_ID>  (1) 
DB00775

>  <DATABASE_NAME>  (1) 
drugbank

>  <DRUGBANK_ID>  (1) 
DB00775

>  <DRUG_GROUPS>  (1) 
approved

>  <EXACT_MASS>  (1) 
440.234492962

>  <FORMULA>  (1) 
C22H36N2O5S

>  <GENERIC_NAME>  (1) 
Tirofiban

>  <INCHI_IDENTIFIER>  (1) 
InChI=1S/C22H36N2O5S/c1-2-3-16-30(27,28)24-21(22(25)26)17-19-7-9-20(10-8-19)29-15-5-4-6-18-11-13-23-14-12-18/h7-10,18,21,23-24H,2-6,11-17H2,1H3,(H,25,26)/t21-/m0/s1

>  <INCHI_KEY>  (1) 
COKMIXFXJJXBQG-NRFANRHFSA-N

>  <INTERNATIONAL_BRANDS>  (1) 
Aggribloc; Agrastat

>  <JCHEM_ACCEPTOR_COUNT>  (1) 
6

>  <JCHEM_AVERAGE_POLARIZABILITY>  (1) 
49.27271964129321

>  <JCHEM_BIOAVAILABILITY>  (1) 
1

>  <JCHEM_DONOR_COUNT>  (1) 
3

>  <JCHEM_FORMAL_CHARGE>  (1) 
0

>  <JCHEM_GHOSE_FILTER>  (1) 
1

>  <JCHEM_IUPAC>  (1) 
(2S)-2-(butane-1-sulfonamido)-3-{4-[4-(piperidin-4-yl)butoxy]phenyl}propanoic acid

>  <JCHEM_LOGP>  (1) 
0.5982969923702584

>  <JCHEM_MDDR_LIKE_RULE>  (1) 
0

>  <JCHEM_NUMBER_OF_RINGS>  (1) 
2

>  <JCHEM_PHYSIOLOGICAL_CHARGE>  (1) 
0

>  <JCHEM_PKA>  (1) 
10.894182081926783

>  <JCHEM_PKA_STRONGEST_ACIDIC>  (1) 
3.1721346854705534

>  <JCHEM_PKA_STRONGEST_BASIC>  (1) 
10.207444726493483

>  <JCHEM_POLAR_SURFACE_AREA>  (1) 
104.73000000000002

>  <JCHEM_REFRACTIVITY>  (1) 
117.4761

>  <JCHEM_ROTATABLE_BOND_COUNT>  (1) 
13

>  <JCHEM_RULE_OF_FIVE>  (1) 
1

>  <JCHEM_TRADITIONAL_IUPAC>  (1) 
tirofiban

>  <JCHEM_VEBER_RULE>  (1) 
0

>  <MOLECULAR_WEIGHT>  (1) 
440.597

>  <PRODUCTS>  (1) 
Aggrastat

>  <SALTS>  (1) 
Tirofiban hydrochloride

>  <SECONDARY_ACCESSION_NUMBERS>  (1) 
APRD00304

>  <SMILES>  (1) 
CCCCS(=O)(=O)N[C@@H](CC1=CC=C(OCCCCC2CCNCC2)C=C1)C(O)=O

>  <SYNONYMS>  (1) 
Tirofiban

$$$$
