821
     RDKit          2D

 31 33  0  0  1  0  0  0  0  0999 V2000
    1.5842   -1.3784    0.0000 Cl  0  0  0  0  0  0  0  0  0  0  0  0
    7.9413   -0.2544    0.0000 O   0  0  0  0  0  0  0  0  0  0  0  0
    6.9253   -1.1762    0.0000 O   0  0  0  0  0  0  0  0  0  0  0  0
    3.8588    0.8874    0.0000 N   0  0  0  0  0  0  0  0  0  0  0  0
    4.2548   -0.3315    0.0000 C   0  0  0  0  0  0  0  0  0  0  0  0
    4.4997    0.4218    0.0000 C   0  0  0  0  0  0  0  0  0  0  0  0
    3.4628   -0.3315    0.0000 C   0  0  0  0  0  0  0  0  0  0  0  0
    5.8607   -0.0031    0.0000 C   0  0  0  0  0  0  0  0  0  0  0  0
    3.2180    0.4218    0.0000 C   0  0  0  0  0  0  0  0  0  0  0  0
    6.6348    0.1646    0.0000 C   0  0  0  0  0  0  0  0  0  0  0  0
    5.3039    0.6058    0.0000 C   0  0  0  0  0  0  0  0  0  0  0  0
    4.7974   -0.9531    0.0000 C   0  0  0  0  0  0  0  0  0  0  0  0
    5.6057   -0.7878    0.0000 C   0  0  0  0  0  0  0  0  0  0  0  0
    2.9203   -0.9531    0.0000 C   0  0  0  0  0  0  0  0  0  0  0  0
    2.4137    0.6058    0.0000 C   0  0  0  0  0  0  0  0  0  0  0  0
    6.8767    0.9188    0.0000 C   0  0  0  0  0  0  0  0  0  0  0  0
    2.1119   -0.7878    0.0000 C   0  0  0  0  0  0  0  0  0  0  0  0
    7.1672   -0.4220    0.0000 C   0  0  0  0  0  0  0  0  0  0  0  0
    1.8570   -0.0031    0.0000 C   0  0  0  0  0  0  0  0  0  0  0  0
    0.0000    0.0000    0.0000 H   0  0  0  0  0  0  0  0  0  0  0  0
    0.0000    0.0000    0.0000 H   0  0  0  0  0  0  0  0  0  0  0  0
    0.0000    0.0000    0.0000 H   0  0  0  0  0  0  0  0  0  0  0  0
    0.0000    0.0000    0.0000 H   0  0  0  0  0  0  0  0  0  0  0  0
    0.0000    0.0000    0.0000 H   0  0  0  0  0  0  0  0  0  0  0  0
    0.0000    0.0000    0.0000 H   0  0  0  0  0  0  0  0  0  0  0  0
    0.0000    0.0000    0.0000 H   0  0  0  0  0  0  0  0  0  0  0  0
    0.0000    0.0000    0.0000 H   0  0  0  0  0  0  0  0  0  0  0  0
    0.0000    0.0000    0.0000 H   0  0  0  0  0  0  0  0  0  0  0  0
    0.0000    0.0000    0.0000 H   0  0  0  0  0  0  0  0  0  0  0  0
    0.0000    0.0000    0.0000 H   0  0  0  0  0  0  0  0  0  0  0  0
    0.0000    0.0000    0.0000 H   0  0  0  0  0  0  0  0  0  0  0  0
  1 17  1  0
  2 18  1  0
  3 18  2  0
  4  6  1  0
  4  9  1  0
  5  6  2  0
  5  7  1  0
  5 12  1  0
  6 11  1  0
  7  9  2  0
  7 14  1  0
  8 10  1  0
  8 11  2  0
  8 13  1  0
  9 15  1  0
 10 16  1  0
 10 18  1  0
 12 13  2  0
 14 17  2  0
 15 19  2  0
 17 19  1  0
  2 20  1  0
  4 21  1  0
 10 22  1  0
 11 23  1  0
 12 24  1  0
 13 25  1  0
 14 26  1  0
 15 27  1  0
 16 28  1  0
 16 29  1  0
 16 30  1  0
 19 31  1  0
M  END
>  <ALOGPS_LOGP>  (1) 
4.09

>  <ALOGPS_LOGS>  (1) 
-4.86

>  <ALOGPS_SOLUBILITY>  (1) 
3.79e-03 g/l

>  <DATABASE_ID>  (1) 
DB00821

>  <DATABASE_NAME>  (1) 
drugbank

>  <DRUGBANK_ID>  (1) 
DB00821

>  <DRUG_GROUPS>  (1) 
approved; vet_approved; withdrawn

>  <EXACT_MASS>  (1) 
273.05565634

>  <FORMULA>  (1) 
C15H12ClNO2

>  <GENERIC_NAME>  (1) 
Carprofen

>  <INCHI_IDENTIFIER>  (1) 
InChI=1S/C15H12ClNO2/c1-8(15(18)19)9-2-4-11-12-7-10(16)3-5-13(12)17-14(11)6-9/h2-8,17H,1H3,(H,18,19)

>  <INCHI_KEY>  (1) 
PUXBGTOOZJQSKH-UHFFFAOYSA-N

>  <INTERNATIONAL_BRANDS>  (1) 
lmadyl; lmafen; Rimadyt

>  <JCHEM_ACCEPTOR_COUNT>  (1) 
2

>  <JCHEM_AVERAGE_POLARIZABILITY>  (1) 
28.558252351664283

>  <JCHEM_BIOAVAILABILITY>  (1) 
1

>  <JCHEM_DONOR_COUNT>  (1) 
2

>  <JCHEM_FORMAL_CHARGE>  (1) 
0

>  <JCHEM_GHOSE_FILTER>  (1) 
1

>  <JCHEM_IUPAC>  (1) 
2-(6-chloro-9H-carbazol-2-yl)propanoic acid

>  <JCHEM_LOGP>  (1) 
3.8756649333333324

>  <JCHEM_MDDR_LIKE_RULE>  (1) 
0

>  <JCHEM_NUMBER_OF_RINGS>  (1) 
3

>  <JCHEM_PHYSIOLOGICAL_CHARGE>  (1) 
-1

>  <JCHEM_PKA>  (1) 
14.80425798051407

>  <JCHEM_PKA_STRONGEST_ACIDIC>  (1) 
4.415797667111492

>  <JCHEM_POLAR_SURFACE_AREA>  (1) 
53.089999999999996

>  <JCHEM_REFRACTIVITY>  (1) 
74.15910000000001

>  <JCHEM_ROTATABLE_BOND_COUNT>  (1) 
2

>  <JCHEM_RULE_OF_FIVE>  (1) 
1

>  <JCHEM_TRADITIONAL_IUPAC>  (1) 
carprofen

>  <JCHEM_VEBER_RULE>  (1) 
0

>  <MOLECULAR_WEIGHT>  (1) 
273.714

>  <SECONDARY_ACCESSION_NUMBERS>  (1) 
APRD00849

>  <SMILES>  (1) 
CC(C(O)=O)C1=CC2=C(C=C1)C1=C(N2)C=CC(Cl)=C1

>  <SYNONYMS>  (1) 
Carprofen; Carprof√®ne; Carprofeno; Carprofenum

$$$$
