153
     RDKit          2D

 73 75  0  0  1  0  0  0  0  0999 V2000
    1.6500   -3.9985    0.0000 O   0  0  0  0  0  0  0  0  0  0  0  0
    4.5080    0.9517    0.0000 C   0  0  0  0  0  0  0  0  0  0  0  0
    5.2886    1.2030    0.0000 C   0  0  0  0  0  0  0  0  0  0  0  0
    4.5080    0.1266    0.0000 C   0  0  0  0  0  0  0  0  0  0  0  0
    5.7701    0.5391    0.0000 C   0  0  0  0  0  0  0  0  0  0  0  0
    5.2886   -0.1247    0.0000 C   0  0  0  0  0  0  0  0  0  0  0  0
    3.7935    1.3642    0.0000 C   0  0  0  0  0  0  0  0  0  0  0  0
    5.5449    1.9872    0.0000 C   0  0  0  0  0  0  0  0  0  0  0  0
    3.7935   -0.2859    0.0000 C   0  0  0  0  0  0  0  0  0  0  0  0
    4.5080    1.7767    0.0000 C   0  0  0  0  0  0  0  0  0  0  0  0
    3.0791    0.9517    0.0000 C   0  0  0  0  0  0  0  0  0  0  0  0
    3.0791    0.1266    0.0000 C   0  0  0  0  0  0  0  0  0  0  0  0
    4.9939    2.6013    0.0000 C   0  0  0  0  0  0  0  0  0  0  0  0
    6.3522    2.1574    0.0000 C   0  0  0  0  0  0  0  0  0  0  0  0
    3.7935   -1.1109    0.0000 C   0  0  0  0  0  0  0  0  0  0  0  0
    6.6086    2.9416    0.0000 C   0  0  0  0  0  0  0  0  0  0  0  0
    3.0791   -1.5234    0.0000 C   0  0  0  0  0  0  0  0  0  0  0  0
    7.4158    3.1117    0.0000 C   0  0  0  0  0  0  0  0  0  0  0  0
    3.0791   -2.3484    0.0000 C   0  0  0  0  0  0  0  0  0  0  0  0
    7.6721    3.8959    0.0000 C   0  0  0  0  0  0  0  0  0  0  0  0
    2.3645   -2.7609    0.0000 C   0  0  0  0  0  0  0  0  0  0  0  0
    7.9668    2.4977    0.0000 C   0  0  0  0  0  0  0  0  0  0  0  0
    3.7935   -2.7609    0.0000 C   0  0  0  0  0  0  0  0  0  0  0  0
    2.3645   -3.5859    0.0000 C   0  0  0  0  0  0  0  0  0  0  0  0
    3.7935   -3.5859    0.0000 C   0  0  0  0  0  0  0  0  0  0  0  0
    3.0791   -3.9985    0.0000 C   0  0  0  0  0  0  0  0  0  0  0  0
    7.1211    4.5100    0.0000 C   0  0  0  0  0  0  0  0  0  0  0  0
    8.4794    4.0660    0.0000 C   0  0  0  0  0  0  0  0  0  0  0  0
    4.5080   -2.3484    0.0000 C   0  0  0  0  0  0  0  0  0  0  0  0
    0.0000    0.0000    0.0000 H   0  0  0  0  0  0  0  0  0  0  0  0
    0.0000    0.0000    0.0000 H   0  0  0  0  0  0  0  0  0  0  0  0
    0.0000    0.0000    0.0000 H   0  0  0  0  0  0  0  0  0  0  0  0
    0.0000    0.0000    0.0000 H   0  0  0  0  0  0  0  0  0  0  0  0
    0.0000    0.0000    0.0000 H   0  0  0  0  0  0  0  0  0  0  0  0
    0.0000    0.0000    0.0000 H   0  0  0  0  0  0  0  0  0  0  0  0
    0.0000    0.0000    0.0000 H   0  0  0  0  0  0  0  0  0  0  0  0
    0.0000    0.0000    0.0000 H   0  0  0  0  0  0  0  0  0  0  0  0
    0.0000    0.0000    0.0000 H   0  0  0  0  0  0  0  0  0  0  0  0
    0.0000    0.0000    0.0000 H   0  0  0  0  0  0  0  0  0  0  0  0
    0.0000    0.0000    0.0000 H   0  0  0  0  0  0  0  0  0  0  0  0
    0.0000    0.0000    0.0000 H   0  0  0  0  0  0  0  0  0  0  0  0
    0.0000    0.0000    0.0000 H   0  0  0  0  0  0  0  0  0  0  0  0
    0.0000    0.0000    0.0000 H   0  0  0  0  0  0  0  0  0  0  0  0
    0.0000    0.0000    0.0000 H   0  0  0  0  0  0  0  0  0  0  0  0
    0.0000    0.0000    0.0000 H   0  0  0  0  0  0  0  0  0  0  0  0
    0.0000    0.0000    0.0000 H   0  0  0  0  0  0  0  0  0  0  0  0
    0.0000    0.0000    0.0000 H   0  0  0  0  0  0  0  0  0  0  0  0
    0.0000    0.0000    0.0000 H   0  0  0  0  0  0  0  0  0  0  0  0
    0.0000    0.0000    0.0000 H   0  0  0  0  0  0  0  0  0  0  0  0
    0.0000    0.0000    0.0000 H   0  0  0  0  0  0  0  0  0  0  0  0
    0.0000    0.0000    0.0000 H   0  0  0  0  0  0  0  0  0  0  0  0
    0.0000    0.0000    0.0000 H   0  0  0  0  0  0  0  0  0  0  0  0
    0.0000    0.0000    0.0000 H   0  0  0  0  0  0  0  0  0  0  0  0
    0.0000    0.0000    0.0000 H   0  0  0  0  0  0  0  0  0  0  0  0
    0.0000    0.0000    0.0000 H   0  0  0  0  0  0  0  0  0  0  0  0
    0.0000    0.0000    0.0000 H   0  0  0  0  0  0  0  0  0  0  0  0
    0.0000    0.0000    0.0000 H   0  0  0  0  0  0  0  0  0  0  0  0
    0.0000    0.0000    0.0000 H   0  0  0  0  0  0  0  0  0  0  0  0
    0.0000    0.0000    0.0000 H   0  0  0  0  0  0  0  0  0  0  0  0
    0.0000    0.0000    0.0000 H   0  0  0  0  0  0  0  0  0  0  0  0
    0.0000    0.0000    0.0000 H   0  0  0  0  0  0  0  0  0  0  0  0
    0.0000    0.0000    0.0000 H   0  0  0  0  0  0  0  0  0  0  0  0
    0.0000    0.0000    0.0000 H   0  0  0  0  0  0  0  0  0  0  0  0
    0.0000    0.0000    0.0000 H   0  0  0  0  0  0  0  0  0  0  0  0
    0.0000    0.0000    0.0000 H   0  0  0  0  0  0  0  0  0  0  0  0
    0.0000    0.0000    0.0000 H   0  0  0  0  0  0  0  0  0  0  0  0
    0.0000    0.0000    0.0000 H   0  0  0  0  0  0  0  0  0  0  0  0
    0.0000    0.0000    0.0000 H   0  0  0  0  0  0  0  0  0  0  0  0
    0.0000    0.0000    0.0000 H   0  0  0  0  0  0  0  0  0  0  0  0
    0.0000    0.0000    0.0000 H   0  0  0  0  0  0  0  0  0  0  0  0
    0.0000    0.0000    0.0000 H   0  0  0  0  0  0  0  0  0  0  0  0
    0.0000    0.0000    0.0000 H   0  0  0  0  0  0  0  0  0  0  0  0
    0.0000    0.0000    0.0000 H   0  0  0  0  0  0  0  0  0  0  0  0
 24  1  1  6
  2  3  1  0
  2  4  1  0
  2  7  1  0
  2 10  1  1
  3  5  1  0
  3  8  1  0
  4  6  1  0
  4  9  1  0
  5  6  1  0
  7 11  1  0
  8 13  1  6
  8 14  1  0
  9 12  1  0
  9 15  2  0
 11 12  1  0
 14 16  2  0
 15 17  1  0
 18 16  1  1
 17 19  2  0
 18 20  1  0
 18 22  1  0
 19 21  1  0
 19 23  1  0
 20 27  1  0
 20 28  1  0
 21 24  1  0
 23 25  1  0
 23 29  2  3
 24 26  1  0
 25 26  1  0
  1 30  1  0
  3 31  1  6
  4 32  1  6
  5 33  1  0
  5 34  1  0
  6 35  1  0
  6 36  1  0
  7 37  1  0
  7 38  1  0
  8 39  1  0
 10 40  1  0
 10 41  1  0
 10 42  1  0
 11 43  1  0
 11 44  1  0
 12 45  1  0
 12 46  1  0
 13 47  1  0
 13 48  1  0
 13 49  1  0
 14 50  1  0
 15 51  1  0
 16 52  1  0
 17 53  1  0
 18 54  1  0
 20 55  1  0
 21 56  1  0
 21 57  1  0
 22 58  1  0
 22 59  1  0
 22 60  1  0
 24 61  1  0
 25 62  1  0
 25 63  1  0
 26 64  1  0
 26 65  1  0
 27 66  1  0
 27 67  1  0
 27 68  1  0
 28 69  1  0
 28 70  1  0
 28 71  1  0
 29 72  1  0
 29 73  1  0
M  END
>  <ALOGPS_LOGP>  (1) 
7.59

>  <ALOGPS_LOGS>  (1) 
-5.96

>  <ALOGPS_SOLUBILITY>  (1) 
4.33e-04 g/l

>  <DATABASE_ID>  (1) 
DB00153

>  <DATABASE_NAME>  (1) 
drugbank

>  <DRUGBANK_ID>  (1) 
DB00153

>  <DRUG_GROUPS>  (1) 
approved; nutraceutical

>  <EXACT_MASS>  (1) 
396.33921603

>  <FORMULA>  (1) 
C28H44O

>  <GENERIC_NAME>  (1) 
Ergocalciferol

>  <INCHI_IDENTIFIER>  (1) 
InChI=1S/C28H44O/c1-19(2)20(3)9-10-22(5)26-15-16-27-23(8-7-17-28(26,27)6)12-13-24-18-25(29)14-11-21(24)4/h9-10,12-13,19-20,22,25-27,29H,4,7-8,11,14-18H2,1-3,5-6H3/b10-9+,23-12+,24-13-/t20-,22+,25-,26+,27-,28+/m0/s1

>  <INCHI_KEY>  (1) 
MECHNRXZTMCUDQ-RKHKHRCZSA-N

>  <INTERNATIONAL_BRANDS>  (1) 
Calcidol; Deltalin

>  <JCHEM_ACCEPTOR_COUNT>  (1) 
1

>  <JCHEM_AVERAGE_POLARIZABILITY>  (1) 
50.73329446982394

>  <JCHEM_BIOAVAILABILITY>  (1) 
1

>  <JCHEM_DONOR_COUNT>  (1) 
1

>  <JCHEM_FORMAL_CHARGE>  (1) 
0

>  <JCHEM_GHOSE_FILTER>  (1) 
0

>  <JCHEM_IUPAC>  (1) 
(1S,3Z)-3-{2-[(1R,3aS,4E,7aR)-1-[(2R,3E,5R)-5,6-dimethylhept-3-en-2-yl]-7a-methyl-octahydro-1H-inden-4-ylidene]ethylidene}-4-methylidenecyclohexan-1-ol

>  <JCHEM_LOGP>  (1) 
7.050558194333334

>  <JCHEM_MDDR_LIKE_RULE>  (1) 
0

>  <JCHEM_NUMBER_OF_RINGS>  (1) 
3

>  <JCHEM_PHYSIOLOGICAL_CHARGE>  (1) 
0

>  <JCHEM_PKA_STRONGEST_ACIDIC>  (1) 
18.384341369959035

>  <JCHEM_PKA_STRONGEST_BASIC>  (1) 
-1.3184890847799178

>  <JCHEM_POLAR_SURFACE_AREA>  (1) 
20.23

>  <JCHEM_REFRACTIVITY>  (1) 
128.88969999999998

>  <JCHEM_ROTATABLE_BOND_COUNT>  (1) 
5

>  <JCHEM_RULE_OF_FIVE>  (1) 
0

>  <JCHEM_TRADITIONAL_IUPAC>  (1) 
ergocalciferol

>  <JCHEM_VEBER_RULE>  (1) 
1

>  <MOLECULAR_WEIGHT>  (1) 
396.6484

>  <PRODUCTS>  (1) 
Aquasol A & D Drops; Cal/mag 2:1 With D; Calcium  Mg and Zn Capsules With Vitamin D; Calcium Chelate Plus Vit D; Calcium Citrate W Vitamin D Tab; Calcium Magnesium 2:1 Tablets With Vitamin D; Calcium Magnesium Avec Vitamine D Et Zinc; Calcium Magnesium Plus Vitamin D Liquid; Calcium With Vitamin D2; Calcium With Vitamins C and D Tab; Children Pediatric Vitamins Drops; Childrens Chewable Multiple Vitamins Tab; D-forte; Drisdol; Ergocalciferol; Formula Cm; Formula EC; Formula Js; Infant's Multiple Vitamin Drops; Infants' Vitamin Drops; Insur-all Vitamin Supplement; Kanga-V Multivitamins & Minerals; Kenwood Liquid Supplement; M.V.I. Pediatric; Maxi 10 Tab; Maxi 6 Liq; Multi Vitamin Infusion; Multiple Vitamin Plus Minerals Tab; Multiple Vitamins; Multiple Vitamins With Iron; Multivitamins W Minerals Extra Strength; Onccor; One A Day Tab; Osto-D2; Paramettes Syrup; Radiostol Cap 50000iu; Sopalamine/3b Plus C; Tender Age Multi Vitamins; Vege 1 Daily Tab; Vitamin D; Vitamines Pour Bebes Et Enfants; Zoo Chews

>  <SECONDARY_ACCESSION_NUMBERS>  (1) 
NUTR00005; APRD00426

>  <SMILES>  (1) 
CC(C)[C@@H](C)\C=C\[C@@H](C)[C@@]1([H])CC[C@@]2([H])\C(CCC[C@]12C)=C\C=C1\C[C@@H](O)CCC1=C

>  <SYNONYMS>  (1) 
(3β,5Z,7E,22E)-9,10-secoergosta-5,7,10(19),22-tetraen-3-ol; (5Z,7E,22E)-(3S)-9,10-seco-5,7,10(19),22-ergostatetraen-3-ol; (5Z,7E,22E)-(3S)-9,10-secoergosta-5,7,10(19),22-tetraen-3-ol; Activated ergosterol; Ercalciol; Ergocalciférol; Ergocalciferol; Ergocalciferolum; Oleovitamin D2; Viosterol; Vitamin D2; Vitamina D2

$$$$
