
     RDKit          2D

269281  0  0  1  0  0  0  0  0999 V2000
    2.3674   -7.1899    0.0000 C   0  0  0  0  0  0  0  0  0  0  0  0
    2.4806   -6.3727    0.0000 O   0  0  0  0  0  0  0  0  0  0  0  0
    1.8294   -5.8661    0.0000 C   0  0  0  0  0  0  0  0  0  0  0  0
    1.9425   -5.0489    0.0000 C   0  0  0  0  0  0  0  0  0  0  0  0
    1.2914   -4.5423    0.0000 C   0  0  0  0  0  0  0  0  0  0  0  0
    0.5271   -4.8529    0.0000 O   0  0  0  0  0  0  0  0  0  0  0  0
    0.4140   -5.6701    0.0000 C   0  0  0  0  0  0  0  0  0  0  0  0
   -0.3503   -5.9808    0.0000 C   0  0  0  0  0  0  0  0  0  0  0  0
    1.0651   -6.1767    0.0000 C   0  0  0  0  0  0  0  0  0  0  0  0
    0.9520   -6.9939    0.0000 O   0  0  0  0  0  0  0  0  0  0  0  0
    1.4045   -3.7251    0.0000 O   0  0  0  0  0  0  0  0  0  0  0  0
    0.7534   -3.2185    0.0000 C   0  0  0  0  0  0  0  0  0  0  0  0
   -0.0109   -3.5291    0.0000 C   0  0  0  0  0  0  0  0  0  0  0  0
   -0.1240   -4.3463    0.0000 C   0  0  0  0  0  0  0  0  0  0  0  0
   -0.6621   -3.0226    0.0000 O   0  0  0  0  0  0  0  0  0  0  0  0
   -0.5489   -2.2054    0.0000 C   0  0  0  0  0  0  0  0  0  0  0  0
    0.2154   -1.8947    0.0000 C   0  0  0  0  0  0  0  0  0  0  0  0
    0.8665   -2.4013    0.0000 C   0  0  0  0  0  0  0  0  0  0  0  0
    1.6308   -2.0907    0.0000 O   0  0  0  0  0  0  0  0  0  0  0  0
    2.2820   -2.5973    0.0000 C   0  0  0  0  0  0  0  0  0  0  0  0
   -1.2001   -1.6988    0.0000 O   0  0  0  0  0  0  0  0  0  0  0  0
   -1.0869   -0.8816    0.0000 C   0  0  0  0  0  0  0  0  0  0  0  0
   -1.7381   -0.3750    0.0000 C   0  0  0  0  0  0  0  0  0  0  0  0
   -2.5024   -0.6856    0.0000 C   0  0  0  0  0  0  0  0  0  0  0  0
   -1.6249    0.4422    0.0000 C   0  0  0  0  0  0  0  0  0  0  0  0
   -2.2761    0.9488    0.0000 C   0  0  0  0  0  0  0  0  0  0  0  0
   -2.1629    1.7660    0.0000 C   0  0  0  0  0  0  0  0  0  0  0  0
   -2.8141    2.2726    0.0000 C   0  0  0  0  0  0  0  0  0  0  0  0
   -3.6370    2.2134    0.0000 C   0  0  0  0  0  0  0  0  0  0  0  0
   -3.9476    2.9777    0.0000 O   0  0  0  0  0  0  0  0  0  0  0  0
   -3.3167    3.5093    0.0000 C   0  0  0  0  0  0  0  0  0  0  0  0
   -3.2896    4.3338    0.0000 C   0  0  0  0  0  0  0  0  0  0  0  0
   -3.9901    4.7696    0.0000 O   0  0  0  0  0  0  0  0  0  0  0  0
   -2.5620    4.7226    0.0000 C   0  0  0  0  0  0  0  0  0  0  0  0
   -2.5349    5.5472    0.0000 C   0  0  0  0  0  0  0  0  0  0  0  0
   -1.8614    4.2869    0.0000 C   0  0  0  0  0  0  0  0  0  0  0  0
   -1.9367    3.4004    0.0000 C   0  0  0  0  0  0  0  0  0  0  0  0
   -1.2855    2.8938    0.0000 C   0  0  0  0  0  0  0  0  0  0  0  0
   -1.3987    2.0766    0.0000 O   0  0  0  0  0  0  0  0  0  0  0  0
   -0.5212    3.2045    0.0000 O   0  0  0  0  0  0  0  0  0  0  0  0
    0.1299    2.6979    0.0000 C   0  0  0  0  0  0  0  0  0  0  0  0
    0.0168    1.8807    0.0000 C   0  0  0  0  0  0  0  0  0  0  0  0
    0.6679    1.3741    0.0000 C   0  0  0  0  0  0  0  0  0  0  0  0
    0.5548    0.5569    0.0000 C   0  0  0  0  0  0  0  0  0  0  0  0
   -0.2095    0.2463    0.0000 C   0  0  0  0  0  0  0  0  0  0  0  0
   -0.3226   -0.5709    0.0000 C   0  0  0  0  0  0  0  0  0  0  0  0
    0.3285   -1.0775    0.0000 C   0  0  0  0  0  0  0  0  0  0  0  0
    1.4322    1.6847    0.0000 O   0  0  0  0  0  0  0  0  0  0  0  0
    1.5454    2.5019    0.0000 C   0  0  0  0  0  0  0  0  0  0  0  0
    1.6585    3.3191    0.0000 C   0  0  0  0  0  0  0  0  0  0  0  0
    2.4228    3.6297    0.0000 C   0  0  0  0  0  0  0  0  0  0  0  0
    3.0739    3.1232    0.0000 C   0  0  0  0  0  0  0  0  0  0  0  0
    3.8382    3.4338    0.0000 C   0  0  0  0  0  0  0  0  0  0  0  0
    2.9608    2.3060    0.0000 C   0  0  0  0  0  0  0  0  0  0  0  0
    2.1965    1.9953    0.0000 O   0  0  0  0  0  0  0  0  0  0  0  0
    3.6120    1.7994    0.0000 C   0  0  0  0  0  0  0  0  0  0  0  0
    3.4988    0.9822    0.0000 C   0  0  0  0  0  0  0  0  0  0  0  0
    4.3762    2.1100    0.0000 C   0  0  0  0  0  0  0  0  0  0  0  0
    0.8942    3.0085    0.0000 C   0  0  0  0  0  0  0  0  0  0  0  0
   -2.7010    3.0898    0.0000 C   0  0  0  0  0  0  0  0  0  0  0  0
   -2.6137    3.9102    0.0000 O   0  0  0  0  0  0  0  0  0  0  0  0
   18.8442    0.8897    0.0000 C   0  0  0  0  0  0  0  0  0  0  0  0
   18.1930    1.3963    0.0000 C   0  0  0  0  0  0  0  0  0  0  0  0
   17.4287    1.0857    0.0000 C   0  0  0  0  0  0  0  0  0  0  0  0
   17.3156    0.2685    0.0000 C   0  0  0  0  0  0  0  0  0  0  0  0
   16.7776    1.5923    0.0000 C   0  0  0  0  0  0  0  0  0  0  0  0
   16.0133    1.2816    0.0000 O   0  0  0  0  0  0  0  0  0  0  0  0
   15.3621    1.7882    0.0000 C   0  0  0  0  0  0  0  0  0  0  0  0
   15.4753    2.6054    0.0000 C   0  0  0  0  0  0  0  0  0  0  0  0
   16.2396    2.9161    0.0000 C   0  0  0  0  0  0  0  0  0  0  0  0
   16.8907    2.4095    0.0000 C   0  0  0  0  0  0  0  0  0  0  0  0
   17.6550    2.7201    0.0000 C   0  0  0  0  0  0  0  0  0  0  0  0
   14.7110    2.2948    0.0000 C   0  0  0  0  0  0  0  0  0  0  0  0
   13.9467    1.9842    0.0000 C   0  0  0  0  0  0  0  0  0  0  0  0
   13.8336    1.1670    0.0000 C   0  0  0  0  0  0  0  0  0  0  0  0
   14.4847    0.6604    0.0000 C   0  0  0  0  0  0  0  0  0  0  0  0
   14.3716   -0.1568    0.0000 C   0  0  0  0  0  0  0  0  0  0  0  0
   13.6073   -0.4674    0.0000 C   0  0  0  0  0  0  0  0  0  0  0  0
   13.4941   -1.2846    0.0000 C   0  0  0  0  0  0  0  0  0  0  0  0
   14.1453   -1.7912    0.0000 C   0  0  0  0  0  0  0  0  0  0  0  0
   12.7299   -1.5952    0.0000 C   0  0  0  0  0  0  0  0  0  0  0  0
   12.6167   -2.4124    0.0000 O   0  0  0  0  0  0  0  0  0  0  0  0
   11.8524   -2.7231    0.0000 C   0  0  0  0  0  0  0  0  0  0  0  0
   11.7393   -3.5403    0.0000 C   0  0  0  0  0  0  0  0  0  0  0  0
   10.9750   -3.8509    0.0000 C   0  0  0  0  0  0  0  0  0  0  0  0
   10.8619   -4.6681    0.0000 O   0  0  0  0  0  0  0  0  0  0  0  0
   10.0976   -4.9787    0.0000 C   0  0  0  0  0  0  0  0  0  0  0  0
   10.3238   -3.3443    0.0000 C   0  0  0  0  0  0  0  0  0  0  0  0
    9.5596   -3.6549    0.0000 O   0  0  0  0  0  0  0  0  0  0  0  0
    8.9084   -3.1483    0.0000 C   0  0  0  0  0  0  0  0  0  0  0  0
    8.1441   -3.4590    0.0000 C   0  0  0  0  0  0  0  0  0  0  0  0
    7.4930   -2.9524    0.0000 C   0  0  0  0  0  0  0  0  0  0  0  0
    6.7287   -3.2630    0.0000 O   0  0  0  0  0  0  0  0  0  0  0  0
    6.6155   -4.0802    0.0000 C   0  0  0  0  0  0  0  0  0  0  0  0
    7.6061   -2.1352    0.0000 C   0  0  0  0  0  0  0  0  0  0  0  0
    6.9550   -1.6286    0.0000 O   0  0  0  0  0  0  0  0  0  0  0  0
    8.3704   -1.8246    0.0000 C   0  0  0  0  0  0  0  0  0  0  0  0
    8.4835   -1.0074    0.0000 C   0  0  0  0  0  0  0  0  0  0  0  0
    9.0215   -2.3311    0.0000 O   0  0  0  0  0  0  0  0  0  0  0  0
   10.4370   -2.5271    0.0000 C   0  0  0  0  0  0  0  0  0  0  0  0
    9.7858   -2.0205    0.0000 C   0  0  0  0  0  0  0  0  0  0  0  0
   11.2013   -2.2165    0.0000 O   0  0  0  0  0  0  0  0  0  0  0  0
   12.0787   -1.0887    0.0000 C   0  0  0  0  0  0  0  0  0  0  0  0
   11.3144   -1.3993    0.0000 C   0  0  0  0  0  0  0  0  0  0  0  0
   12.1918   -0.2715    0.0000 C   0  0  0  0  0  0  0  0  0  0  0  0
   11.5407    0.2351    0.0000 C   0  0  0  0  0  0  0  0  0  0  0  0
   11.6538    1.0523    0.0000 C   0  0  0  0  0  0  0  0  0  0  0  0
   11.0027    1.5589    0.0000 C   0  0  0  0  0  0  0  0  0  0  0  0
   10.1798    1.4997    0.0000 C   0  0  0  0  0  0  0  0  0  0  0  0
    9.8692    2.2640    0.0000 O   0  0  0  0  0  0  0  0  0  0  0  0
   10.5001    2.7956    0.0000 C   0  0  0  0  0  0  0  0  0  0  0  0
   10.5272    3.6201    0.0000 C   0  0  0  0  0  0  0  0  0  0  0  0
    9.8267    4.0559    0.0000 O   0  0  0  0  0  0  0  0  0  0  0  0
   11.2548    4.0089    0.0000 C   0  0  0  0  0  0  0  0  0  0  0  0
   11.2819    4.8335    0.0000 C   0  0  0  0  0  0  0  0  0  0  0  0
   11.9554    3.5732    0.0000 C   0  0  0  0  0  0  0  0  0  0  0  0
   11.8801    2.6867    0.0000 C   0  0  0  0  0  0  0  0  0  0  0  0
   12.5313    2.1802    0.0000 C   0  0  0  0  0  0  0  0  0  0  0  0
   12.4181    1.3630    0.0000 O   0  0  0  0  0  0  0  0  0  0  0  0
   13.2956    2.4908    0.0000 O   0  0  0  0  0  0  0  0  0  0  0  0
   11.1158    2.3761    0.0000 C   0  0  0  0  0  0  0  0  0  0  0  0
   11.2031    3.1965    0.0000 O   0  0  0  0  0  0  0  0  0  0  0  0
   15.2490    0.9710    0.0000 O   0  0  0  0  0  0  0  0  0  0  0  0
    0.0000    0.0000    0.0000 H   0  0  0  0  0  0  0  0  0  0  0  0
    0.0000    0.0000    0.0000 H   0  0  0  0  0  0  0  0  0  0  0  0
    0.0000    0.0000    0.0000 H   0  0  0  0  0  0  0  0  0  0  0  0
    0.0000    0.0000    0.0000 H   0  0  0  0  0  0  0  0  0  0  0  0
    0.0000    0.0000    0.0000 H   0  0  0  0  0  0  0  0  0  0  0  0
    0.0000    0.0000    0.0000 H   0  0  0  0  0  0  0  0  0  0  0  0
    0.0000    0.0000    0.0000 H   0  0  0  0  0  0  0  0  0  0  0  0
    0.0000    0.0000    0.0000 H   0  0  0  0  0  0  0  0  0  0  0  0
    0.0000    0.0000    0.0000 H   0  0  0  0  0  0  0  0  0  0  0  0
    0.0000    0.0000    0.0000 H   0  0  0  0  0  0  0  0  0  0  0  0
    0.0000    0.0000    0.0000 H   0  0  0  0  0  0  0  0  0  0  0  0
    0.0000    0.0000    0.0000 H   0  0  0  0  0  0  0  0  0  0  0  0
    0.0000    0.0000    0.0000 H   0  0  0  0  0  0  0  0  0  0  0  0
    0.0000    0.0000    0.0000 H   0  0  0  0  0  0  0  0  0  0  0  0
    0.0000    0.0000    0.0000 H   0  0  0  0  0  0  0  0  0  0  0  0
    0.0000    0.0000    0.0000 H   0  0  0  0  0  0  0  0  0  0  0  0
    0.0000    0.0000    0.0000 H   0  0  0  0  0  0  0  0  0  0  0  0
    0.0000    0.0000    0.0000 H   0  0  0  0  0  0  0  0  0  0  0  0
    0.0000    0.0000    0.0000 H   0  0  0  0  0  0  0  0  0  0  0  0
    0.0000    0.0000    0.0000 H   0  0  0  0  0  0  0  0  0  0  0  0
    0.0000    0.0000    0.0000 H   0  0  0  0  0  0  0  0  0  0  0  0
    0.0000    0.0000    0.0000 H   0  0  0  0  0  0  0  0  0  0  0  0
    0.0000    0.0000    0.0000 H   0  0  0  0  0  0  0  0  0  0  0  0
    0.0000    0.0000    0.0000 H   0  0  0  0  0  0  0  0  0  0  0  0
    0.0000    0.0000    0.0000 H   0  0  0  0  0  0  0  0  0  0  0  0
    0.0000    0.0000    0.0000 H   0  0  0  0  0  0  0  0  0  0  0  0
    0.0000    0.0000    0.0000 H   0  0  0  0  0  0  0  0  0  0  0  0
    0.0000    0.0000    0.0000 H   0  0  0  0  0  0  0  0  0  0  0  0
    0.0000    0.0000    0.0000 H   0  0  0  0  0  0  0  0  0  0  0  0
    0.0000    0.0000    0.0000 H   0  0  0  0  0  0  0  0  0  0  0  0
    0.0000    0.0000    0.0000 H   0  0  0  0  0  0  0  0  0  0  0  0
    0.0000    0.0000    0.0000 H   0  0  0  0  0  0  0  0  0  0  0  0
    0.0000    0.0000    0.0000 H   0  0  0  0  0  0  0  0  0  0  0  0
    0.0000    0.0000    0.0000 H   0  0  0  0  0  0  0  0  0  0  0  0
    0.0000    0.0000    0.0000 H   0  0  0  0  0  0  0  0  0  0  0  0
    0.0000    0.0000    0.0000 H   0  0  0  0  0  0  0  0  0  0  0  0
    0.0000    0.0000    0.0000 H   0  0  0  0  0  0  0  0  0  0  0  0
    0.0000    0.0000    0.0000 H   0  0  0  0  0  0  0  0  0  0  0  0
    0.0000    0.0000    0.0000 H   0  0  0  0  0  0  0  0  0  0  0  0
    0.0000    0.0000    0.0000 H   0  0  0  0  0  0  0  0  0  0  0  0
    0.0000    0.0000    0.0000 H   0  0  0  0  0  0  0  0  0  0  0  0
    0.0000    0.0000    0.0000 H   0  0  0  0  0  0  0  0  0  0  0  0
    0.0000    0.0000    0.0000 H   0  0  0  0  0  0  0  0  0  0  0  0
    0.0000    0.0000    0.0000 H   0  0  0  0  0  0  0  0  0  0  0  0
    0.0000    0.0000    0.0000 H   0  0  0  0  0  0  0  0  0  0  0  0
    0.0000    0.0000    0.0000 H   0  0  0  0  0  0  0  0  0  0  0  0
    0.0000    0.0000    0.0000 H   0  0  0  0  0  0  0  0  0  0  0  0
    0.0000    0.0000    0.0000 H   0  0  0  0  0  0  0  0  0  0  0  0
    0.0000    0.0000    0.0000 H   0  0  0  0  0  0  0  0  0  0  0  0
    0.0000    0.0000    0.0000 H   0  0  0  0  0  0  0  0  0  0  0  0
    0.0000    0.0000    0.0000 H   0  0  0  0  0  0  0  0  0  0  0  0
    0.0000    0.0000    0.0000 H   0  0  0  0  0  0  0  0  0  0  0  0
    0.0000    0.0000    0.0000 H   0  0  0  0  0  0  0  0  0  0  0  0
    0.0000    0.0000    0.0000 H   0  0  0  0  0  0  0  0  0  0  0  0
    0.0000    0.0000    0.0000 H   0  0  0  0  0  0  0  0  0  0  0  0
    0.0000    0.0000    0.0000 H   0  0  0  0  0  0  0  0  0  0  0  0
    0.0000    0.0000    0.0000 H   0  0  0  0  0  0  0  0  0  0  0  0
    0.0000    0.0000    0.0000 H   0  0  0  0  0  0  0  0  0  0  0  0
    0.0000    0.0000    0.0000 H   0  0  0  0  0  0  0  0  0  0  0  0
    0.0000    0.0000    0.0000 H   0  0  0  0  0  0  0  0  0  0  0  0
    0.0000    0.0000    0.0000 H   0  0  0  0  0  0  0  0  0  0  0  0
    0.0000    0.0000    0.0000 H   0  0  0  0  0  0  0  0  0  0  0  0
    0.0000    0.0000    0.0000 H   0  0  0  0  0  0  0  0  0  0  0  0
    0.0000    0.0000    0.0000 H   0  0  0  0  0  0  0  0  0  0  0  0
    0.0000    0.0000    0.0000 H   0  0  0  0  0  0  0  0  0  0  0  0
    0.0000    0.0000    0.0000 H   0  0  0  0  0  0  0  0  0  0  0  0
    0.0000    0.0000    0.0000 H   0  0  0  0  0  0  0  0  0  0  0  0
    0.0000    0.0000    0.0000 H   0  0  0  0  0  0  0  0  0  0  0  0
    0.0000    0.0000    0.0000 H   0  0  0  0  0  0  0  0  0  0  0  0
    0.0000    0.0000    0.0000 H   0  0  0  0  0  0  0  0  0  0  0  0
    0.0000    0.0000    0.0000 H   0  0  0  0  0  0  0  0  0  0  0  0
    0.0000    0.0000    0.0000 H   0  0  0  0  0  0  0  0  0  0  0  0
    0.0000    0.0000    0.0000 H   0  0  0  0  0  0  0  0  0  0  0  0
    0.0000    0.0000    0.0000 H   0  0  0  0  0  0  0  0  0  0  0  0
    0.0000    0.0000    0.0000 H   0  0  0  0  0  0  0  0  0  0  0  0
    0.0000    0.0000    0.0000 H   0  0  0  0  0  0  0  0  0  0  0  0
    0.0000    0.0000    0.0000 H   0  0  0  0  0  0  0  0  0  0  0  0
    0.0000    0.0000    0.0000 H   0  0  0  0  0  0  0  0  0  0  0  0
    0.0000    0.0000    0.0000 H   0  0  0  0  0  0  0  0  0  0  0  0
    0.0000    0.0000    0.0000 H   0  0  0  0  0  0  0  0  0  0  0  0
    0.0000    0.0000    0.0000 H   0  0  0  0  0  0  0  0  0  0  0  0
    0.0000    0.0000    0.0000 H   0  0  0  0  0  0  0  0  0  0  0  0
    0.0000    0.0000    0.0000 H   0  0  0  0  0  0  0  0  0  0  0  0
    0.0000    0.0000    0.0000 H   0  0  0  0  0  0  0  0  0  0  0  0
    0.0000    0.0000    0.0000 H   0  0  0  0  0  0  0  0  0  0  0  0
    0.0000    0.0000    0.0000 H   0  0  0  0  0  0  0  0  0  0  0  0
    0.0000    0.0000    0.0000 H   0  0  0  0  0  0  0  0  0  0  0  0
    0.0000    0.0000    0.0000 H   0  0  0  0  0  0  0  0  0  0  0  0
    0.0000    0.0000    0.0000 H   0  0  0  0  0  0  0  0  0  0  0  0
    0.0000    0.0000    0.0000 H   0  0  0  0  0  0  0  0  0  0  0  0
    0.0000    0.0000    0.0000 H   0  0  0  0  0  0  0  0  0  0  0  0
    0.0000    0.0000    0.0000 H   0  0  0  0  0  0  0  0  0  0  0  0
    0.0000    0.0000    0.0000 H   0  0  0  0  0  0  0  0  0  0  0  0
    0.0000    0.0000    0.0000 H   0  0  0  0  0  0  0  0  0  0  0  0
    0.0000    0.0000    0.0000 H   0  0  0  0  0  0  0  0  0  0  0  0
    0.0000    0.0000    0.0000 H   0  0  0  0  0  0  0  0  0  0  0  0
    0.0000    0.0000    0.0000 H   0  0  0  0  0  0  0  0  0  0  0  0
    0.0000    0.0000    0.0000 H   0  0  0  0  0  0  0  0  0  0  0  0
    0.0000    0.0000    0.0000 H   0  0  0  0  0  0  0  0  0  0  0  0
    0.0000    0.0000    0.0000 H   0  0  0  0  0  0  0  0  0  0  0  0
    0.0000    0.0000    0.0000 H   0  0  0  0  0  0  0  0  0  0  0  0
    0.0000    0.0000    0.0000 H   0  0  0  0  0  0  0  0  0  0  0  0
    0.0000    0.0000    0.0000 H   0  0  0  0  0  0  0  0  0  0  0  0
    0.0000    0.0000    0.0000 H   0  0  0  0  0  0  0  0  0  0  0  0
    0.0000    0.0000    0.0000 H   0  0  0  0  0  0  0  0  0  0  0  0
    0.0000    0.0000    0.0000 H   0  0  0  0  0  0  0  0  0  0  0  0
    0.0000    0.0000    0.0000 H   0  0  0  0  0  0  0  0  0  0  0  0
    0.0000    0.0000    0.0000 H   0  0  0  0  0  0  0  0  0  0  0  0
    0.0000    0.0000    0.0000 H   0  0  0  0  0  0  0  0  0  0  0  0
    0.0000    0.0000    0.0000 H   0  0  0  0  0  0  0  0  0  0  0  0
    0.0000    0.0000    0.0000 H   0  0  0  0  0  0  0  0  0  0  0  0
    0.0000    0.0000    0.0000 H   0  0  0  0  0  0  0  0  0  0  0  0
    0.0000    0.0000    0.0000 H   0  0  0  0  0  0  0  0  0  0  0  0
    0.0000    0.0000    0.0000 H   0  0  0  0  0  0  0  0  0  0  0  0
    0.0000    0.0000    0.0000 H   0  0  0  0  0  0  0  0  0  0  0  0
    0.0000    0.0000    0.0000 H   0  0  0  0  0  0  0  0  0  0  0  0
    0.0000    0.0000    0.0000 H   0  0  0  0  0  0  0  0  0  0  0  0
    0.0000    0.0000    0.0000 H   0  0  0  0  0  0  0  0  0  0  0  0
    0.0000    0.0000    0.0000 H   0  0  0  0  0  0  0  0  0  0  0  0
    0.0000    0.0000    0.0000 H   0  0  0  0  0  0  0  0  0  0  0  0
    0.0000    0.0000    0.0000 H   0  0  0  0  0  0  0  0  0  0  0  0
    0.0000    0.0000    0.0000 H   0  0  0  0  0  0  0  0  0  0  0  0
    0.0000    0.0000    0.0000 H   0  0  0  0  0  0  0  0  0  0  0  0
    0.0000    0.0000    0.0000 H   0  0  0  0  0  0  0  0  0  0  0  0
    0.0000    0.0000    0.0000 H   0  0  0  0  0  0  0  0  0  0  0  0
    0.0000    0.0000    0.0000 H   0  0  0  0  0  0  0  0  0  0  0  0
    0.0000    0.0000    0.0000 H   0  0  0  0  0  0  0  0  0  0  0  0
    0.0000    0.0000    0.0000 H   0  0  0  0  0  0  0  0  0  0  0  0
    0.0000    0.0000    0.0000 H   0  0  0  0  0  0  0  0  0  0  0  0
    0.0000    0.0000    0.0000 H   0  0  0  0  0  0  0  0  0  0  0  0
    0.0000    0.0000    0.0000 H   0  0  0  0  0  0  0  0  0  0  0  0
    0.0000    0.0000    0.0000 H   0  0  0  0  0  0  0  0  0  0  0  0
    0.0000    0.0000    0.0000 H   0  0  0  0  0  0  0  0  0  0  0  0
    0.0000    0.0000    0.0000 H   0  0  0  0  0  0  0  0  0  0  0  0
    0.0000    0.0000    0.0000 H   0  0  0  0  0  0  0  0  0  0  0  0
    0.0000    0.0000    0.0000 H   0  0  0  0  0  0  0  0  0  0  0  0
    0.0000    0.0000    0.0000 H   0  0  0  0  0  0  0  0  0  0  0  0
    0.0000    0.0000    0.0000 H   0  0  0  0  0  0  0  0  0  0  0  0
    0.0000    0.0000    0.0000 H   0  0  0  0  0  0  0  0  0  0  0  0
    0.0000    0.0000    0.0000 H   0  0  0  0  0  0  0  0  0  0  0  0
    0.0000    0.0000    0.0000 H   0  0  0  0  0  0  0  0  0  0  0  0
    0.0000    0.0000    0.0000 H   0  0  0  0  0  0  0  0  0  0  0  0
    0.0000    0.0000    0.0000 H   0  0  0  0  0  0  0  0  0  0  0  0
    0.0000    0.0000    0.0000 H   0  0  0  0  0  0  0  0  0  0  0  0
    0.0000    0.0000    0.0000 H   0  0  0  0  0  0  0  0  0  0  0  0
    0.0000    0.0000    0.0000 H   0  0  0  0  0  0  0  0  0  0  0  0
  1  2  1  0
  3  2  1  1
  3  4  1  0
  4  5  1  0
  5  6  1  0
  6  7  1  0
  7  8  1  6
  7  9  1  0
  3  9  1  0
  9 10  1  6
  5 11  1  1
 12 11  1  6
 12 13  1  0
 13 14  1  1
 13 15  1  0
 15 16  1  0
 16 17  1  0
 17 18  1  0
 12 18  1  0
 18 19  1  6
 19 20  1  0
 16 21  1  1
 22 21  1  6
 22 23  1  0
 23 24  1  6
 23 25  1  0
 25 26  2  0
 26 27  1  0
 27 28  2  0
 28 29  1  0
 29 30  1  0
 31 30  1  0
 31 32  1  0
 32 33  1  1
 32 34  1  0
 34 35  1  0
 34 36  2  0
 37 36  1  0
 37 38  1  0
 38 39  2  0
 38 40  1  0
 40 41  1  0
 41 42  1  0
 43 42  1  0
 43 44  1  0
 44 45  1  0
 45 46  2  0
 22 46  1  0
 46 47  1  0
 43 48  1  0
 49 48  1  6
 49 50  1  0
 50 51  1  0
 51 52  1  0
 52 53  1  1
 52 54  1  0
 54 55  1  0
 49 55  1  0
 54 56  1  1
 56 57  1  0
 56 58  1  0
 49 59  1  0
 41 59  1  0
 37 60  1  0
 28 60  1  0
 31 60  1  0
 60 61  1  1
 62 63  1  0
 64 63  1  6
 64 65  1  0
 66 64  1  0
 66 67  1  0
 68 67  1  1
 68 69  1  0
 69 70  1  0
 70 71  1  0
 66 71  1  0
 71 72  1  1
 68 73  1  0
 74 73  1  0
 74 75  1  0
 76 75  1  0
 76 77  1  0
 77 78  1  0
 78 79  2  0
 79 80  1  0
 79 81  1  0
 81 82  1  1
 83 82  1  6
 83 84  1  0
 84 85  1  0
 85 86  1  6
 86 87  1  0
 85 88  1  0
 88 89  1  1
 90 89  1  6
 90 91  1  0
 91 92  1  0
 92 93  1  6
 93 94  1  0
 92 95  1  0
 95 96  1  1
 95 97  1  0
 97 98  1  6
 97 99  1  0
 90 99  1  0
 88100  1  0
100101  1  6
100102  1  0
 83102  1  0
 81103  1  0
103104  1  1
103105  1  0
105106  2  0
106107  1  0
107108  2  0
108109  1  0
109110  1  0
111110  1  0
111112  1  0
112113  1  6
112114  1  0
114115  1  0
114116  2  0
117116  1  0
117118  1  0
118119  2  0
118120  1  0
 74120  1  0
117121  1  0
108121  1  0
111121  1  0
121122  1  1
 76123  1  0
 68123  1  0
  1124  1  0
  1125  1  0
  1126  1  0
  3127  1  0
  4128  1  0
  4129  1  0
  5130  1  0
  7131  1  0
  8132  1  0
  8133  1  0
  8134  1  0
  9135  1  0
 10136  1  0
 12137  1  0
 13138  1  0
 14139  1  0
 14140  1  0
 14141  1  0
 16142  1  0
 17143  1  0
 17144  1  0
 18145  1  0
 20146  1  0
 20147  1  0
 20148  1  0
 22149  1  0
 23150  1  0
 24151  1  0
 24152  1  0
 24153  1  0
 25154  1  0
 26155  1  0
 27156  1  0
 29157  1  0
 29158  1  0
 31159  1  1
 32160  1  0
 33161  1  0
 35162  1  0
 35163  1  0
 35164  1  0
 36165  1  0
 37166  1  6
 41167  1  1
 42168  1  0
 42169  1  0
 43170  1  1
 44171  1  0
 44172  1  0
 45173  1  0
 47174  1  0
 47175  1  0
 47176  1  0
 50177  1  0
 50178  1  0
 51179  1  0
 51180  1  0
 52181  1  0
 53182  1  0
 53183  1  0
 53184  1  0
 54185  1  0
 56186  1  0
 57187  1  0
 57188  1  0
 57189  1  0
 58190  1  0
 58191  1  0
 58192  1  0
 59193  1  0
 59194  1  0
 61195  1  0
 62196  1  0
 62197  1  0
 62198  1  0
 63199  1  0
 63200  1  0
 64201  1  0
 65202  1  0
 65203  1  0
 65204  1  0
 66205  1  6
 69206  1  0
 69207  1  0
 70208  1  0
 70209  1  0
 71210  1  0
 72211  1  0
 72212  1  0
 72213  1  0
 73214  1  0
 73215  1  0
 74216  1  1
 75217  1  0
 75218  1  0
 76219  1  1
 77220  1  0
 77221  1  0
 78222  1  0
 80223  1  0
 80224  1  0
 80225  1  0
 81226  1  0
 83227  1  0
 84228  1  0
 84229  1  0
 85230  1  0
 87231  1  0
 87232  1  0
 87233  1  0
 88234  1  0
 90235  1  0
 91236  1  0
 91237  1  0
 92238  1  0
 94239  1  0
 94240  1  0
 94241  1  0
 95242  1  0
 96243  1  0
 97244  1  0
 98245  1  0
 98246  1  0
 98247  1  0
100248  1  0
101249  1  0
101250  1  0
101251  1  0
103252  1  0
104253  1  0
104254  1  0
104255  1  0
105256  1  0
106257  1  0
107258  1  0
109259  1  0
109260  1  0
111261  1  1
112262  1  0
113263  1  0
115264  1  0
115265  1  0
115266  1  0
116267  1  0
117268  1  6
122269  1  0
M  END
>  <DATABASE_ID>  (1) 
DB00602

>  <DATABASE_NAME>  (1) 
drugbank

>  <DRUGBANK_ID>  (1) 
DB00602

>  <DRUG_GROUPS>  (1) 
approved; vet_approved

>  <EXACT_MASS>  (1) 
1735.000064088

>  <FORMULA>  (1) 
C95H146O28

>  <GENERIC_NAME>  (1) 
Ivermectin

>  <INCHI_IDENTIFIER>  (1) 
InChI=1S/C48H74O14.C47H72O14/c1-11-25(2)43-28(5)17-18-47(62-43)23-34-20-33(61-47)16-15-27(4)42(26(3)13-12-14-32-24-55-45-40(49)29(6)19-35(46(51)58-34)48(32,45)52)59-39-22-37(54-10)44(31(8)57-39)60-38-21-36(53-9)41(50)30(7)56-38;1-24(2)41-27(5)16-17-46(61-41)22-33-19-32(60-46)15-14-26(4)42(25(3)12-11-13-31-23-54-44-39(48)28(6)18-34(45(50)57-33)47(31,44)51)58-38-21-36(53-10)43(30(8)56-38)59-37-20-35(52-9)40(49)29(7)55-37/h12-15,19,25-26,28,30-31,33-45,49-50,52H,11,16-18,20-24H2,1-10H3;11-14,18,24-25,27,29-30,32-44,48-49,51H,15-17,19-23H2,1-10H3/b13-12+,27-15+,32-14+;12-11+,26-14+,31-13+/t25-,26+,28+,30+,31+,33-,34+,35+,36+,37+,38+,39+,40-,41+,42+,43-,44+,45-,47-,48-;25-,27-,29-,30-,32+,33-,34-,35-,36-,37-,38-,39+,40-,41+,42-,43-,44+,46+,47+/m10/s1

>  <INCHI_KEY>  (1) 
SPBDXSGPUHCETR-CVSKBELMSA-N

>  <INTERNATIONAL_BRANDS>  (1) 
Ascapil; Detebencil; Ermetin; Gotax; Imectin; Ivectin; Ivera; Ivergot; Ivermec; Ivexterm; Ivori; Kaonol; Kilox; Maikeding; Quanox; Revectina; Scabo; Scavista; Securo; Vermectin

>  <JCHEM_ACCEPTOR_COUNT>  (1) 
13

>  <JCHEM_AVERAGE_POLARIZABILITY>  (1) 
96.87093095364965

>  <JCHEM_BIOAVAILABILITY>  (1) 
0

>  <JCHEM_DONOR_COUNT>  (1) 
3

>  <JCHEM_FORMAL_CHARGE>  (1) 
0

>  <JCHEM_GHOSE_FILTER>  (1) 
0

>  <JCHEM_IUPAC>  (1) 
(1'R,2R,4'S,5S,6R,8'R,10'E,12'S,13'S,14'E,16'E,20'R,21'R,24'S)-21',24'-dihydroxy-12'-{[(2R,4S,5S,6S)-5-{[(2S,4S,5S,6S)-5-hydroxy-4-methoxy-6-methyloxan-2-yl]oxy}-4-methoxy-6-methyloxan-2-yl]oxy}-5,11',13',22'-tetramethyl-6-(propan-2-yl)-3',7',19'-trioxaspiro[oxane-2,6'-tetracyclo[15.6.1.1⁴,⁸.0²⁰,²⁴]pentacosane]-10',14',16',22'-tetraen-2'-one; (1'R,2R,4'S,5S,6R,8'R,10'E,12'S,13'S,14'E,16'E,20'R,21'R,24'S)-6-[(2R)-butan-2-yl]-21',24'-dihydroxy-12'-{[(2R,4S,5S,6S)-5-{[(2S,4S,5S,6S)-5-hydroxy-4-methoxy-6-methyloxan-2-yl]oxy}-4-methoxy-6-methyloxan-2-yl]oxy}-5,11',13',22'-tetramethyl-3',7',19'-trioxaspiro[oxane-2,6'-tetracyclo[15.6.1.1⁴,⁸.0²⁰,²⁴]pentacosane]-10',14',16',22'-tetraen-2'-one

>  <JCHEM_LOGP>  (1) 
5.825745655666666

>  <JCHEM_MDDR_LIKE_RULE>  (1) 
1

>  <JCHEM_NUMBER_OF_RINGS>  (1) 
14

>  <JCHEM_PHYSIOLOGICAL_CHARGE>  (1) 
0

>  <JCHEM_PKA>  (1) 
13.169097736330777

>  <JCHEM_PKA_STRONGEST_ACIDIC>  (1) 
12.467904937195897

>  <JCHEM_PKA_STRONGEST_BASIC>  (1) 
-3.4490751341790844

>  <JCHEM_POLAR_SURFACE_AREA>  (1) 
170.06

>  <JCHEM_REFRACTIVITY>  (1) 
230.32760000000005

>  <JCHEM_ROTATABLE_BOND_COUNT>  (1) 
15

>  <JCHEM_RULE_OF_FIVE>  (1) 
0

>  <JCHEM_TRADITIONAL_IUPAC>  (1) 
(1'R,2R,4'S,5S,6R,8'R,10'E,12'S,13'S,14'E,16'E,20'R,21'R,24'S)-6-[(2R)-butan-2-yl]-21',24'-dihydroxy-12'-{[(2R,4S,5S,6S)-5-{[(2S,4S,5S,6S)-5-hydroxy-4-methoxy-6-methyloxan-2-yl]oxy}-4-methoxy-6-methyloxan-2-yl]oxy}-5,11',13',22'-tetramethyl-3',7',19'-trioxaspiro[oxane-2,6'-tetracyclo[15.6.1.1⁴,⁸.0²⁰,²⁴]pentacosane]-10',14',16',22'-tetraen-2'-one; dihydroavermectin B1b

>  <JCHEM_VEBER_RULE>  (1) 
0

>  <MOLECULAR_WEIGHT>  (1) 
1736.1589

>  <PRODUCTS>  (1) 
Ivermectin; Rosiver; Sklice; Soolantra; Stromectol

>  <SECONDARY_ACCESSION_NUMBERS>  (1) 
APRD01058

>  <SMILES>  (1) 
CO[C@H]1C[C@@H](O[C@@H](C)[C@@H]1O)O[C@H]1[C@H](C)O[C@H](C[C@@H]1OC)O[C@H]1[C@@H](C)\C=C\C=C2/CO[C@@H]3[C@H](O)C(C)=C[C@@H](C(=O)O[C@H]4C[C@@H](C\C=C1/C)O[C@@]1(CC[C@H](C)[C@@H](C(C)C)O1)C4)[C@]23O.CC[C@@H](C)[C@H]1O[C@@]2(CC[C@@H]1C)O[C@@H]1C\C=C(C)\[C@@H](O[C@@H]3O[C@@H](C)[C@H](O[C@@H]4O[C@@H](C)[C@H](O)[C@@H](OC)C4)[C@@H](OC)C3)[C@@H](C)\C=C\C=C3/CO[C@@H]4[C@H](O)C(C)=C[C@@H](C(=O)O[C@@H](C1)C2)[C@]34O

>  <SYNONYMS>  (1) 
Ivermectin; Ivermectina; Ivermectine; Ivermectinum

$$$$
