486
     RDKit          2D

 63 65  0  0  1  0  0  0  0  0999 V2000
    8.8492   -1.5184    0.0000 O   0  0  0  0  0  0  0  0  0  0  0  0
    9.5737    2.2512    0.0000 O   0  0  0  0  0  0  0  0  0  0  0  0
    7.4068    0.9851    0.0000 O   0  0  0  0  0  0  0  0  0  0  0  0
    9.5637   -0.2809    0.0000 C   0  0  0  0  0  0  0  0  0  0  0  0
    8.8492    0.1316    0.0000 C   0  0  0  0  0  0  0  0  0  0  0  0
    9.5637   -1.1059    0.0000 C   0  0  0  0  0  0  0  0  0  0  0  0
   10.3145    0.1372    0.0000 C   0  0  0  0  0  0  0  0  0  0  0  0
    8.8360    0.9908    0.0000 C   0  0  0  0  0  0  0  0  0  0  0  0
    8.1347   -0.2809    0.0000 C   0  0  0  0  0  0  0  0  0  0  0  0
   10.3211    0.9965    0.0000 C   0  0  0  0  0  0  0  0  0  0  0  0
    8.1347   -1.1059    0.0000 C   0  0  0  0  0  0  0  0  0  0  0  0
    9.5769    1.4263    0.0000 C   0  0  0  0  0  0  0  0  0  0  0  0
    9.9762   -1.8204    0.0000 C   0  0  0  0  0  0  0  0  0  0  0  0
   10.3888   -1.1059    0.0000 C   0  0  0  0  0  0  0  0  0  0  0  0
    7.3973    0.1602    0.0000 C   0  0  0  0  0  0  0  0  0  0  0  0
    5.9368   -1.5384    0.0000 C   0  0  0  0  0  0  0  0  0  0  0  0
    6.6497   -1.1231    0.0000 C   0  0  0  0  0  0  0  0  0  0  0  0
    7.3973   -1.5471    0.0000 C   0  0  0  0  0  0  0  0  0  0  0  0
    6.6497   -0.2638    0.0000 C   0  0  0  0  0  0  0  0  0  0  0  0
    5.2240   -1.9536    0.0000 C   0  0  0  0  0  0  0  0  0  0  0  0
    6.3521   -2.2512    0.0000 C   0  0  0  0  0  0  0  0  0  0  0  0
    5.5216   -0.8255    0.0000 C   0  0  0  0  0  0  0  0  0  0  0  0
    4.5079   -1.5438    0.0000 C   0  0  0  0  0  0  0  0  0  0  0  0
    3.7950   -1.9591    0.0000 C   0  0  0  0  0  0  0  0  0  0  0  0
    3.0789   -1.5494    0.0000 C   0  0  0  0  0  0  0  0  0  0  0  0
    2.3660   -1.9646    0.0000 C   0  0  0  0  0  0  0  0  0  0  0  0
    1.6500   -1.5549    0.0000 C   0  0  0  0  0  0  0  0  0  0  0  0
    0.0000    0.0000    0.0000 H   0  0  0  0  0  0  0  0  0  0  0  0
    0.0000    0.0000    0.0000 H   0  0  0  0  0  0  0  0  0  0  0  0
    0.0000    0.0000    0.0000 H   0  0  0  0  0  0  0  0  0  0  0  0
    0.0000    0.0000    0.0000 H   0  0  0  0  0  0  0  0  0  0  0  0
    0.0000    0.0000    0.0000 H   0  0  0  0  0  0  0  0  0  0  0  0
    0.0000    0.0000    0.0000 H   0  0  0  0  0  0  0  0  0  0  0  0
    0.0000    0.0000    0.0000 H   0  0  0  0  0  0  0  0  0  0  0  0
    0.0000    0.0000    0.0000 H   0  0  0  0  0  0  0  0  0  0  0  0
    0.0000    0.0000    0.0000 H   0  0  0  0  0  0  0  0  0  0  0  0
    0.0000    0.0000    0.0000 H   0  0  0  0  0  0  0  0  0  0  0  0
    0.0000    0.0000    0.0000 H   0  0  0  0  0  0  0  0  0  0  0  0
    0.0000    0.0000    0.0000 H   0  0  0  0  0  0  0  0  0  0  0  0
    0.0000    0.0000    0.0000 H   0  0  0  0  0  0  0  0  0  0  0  0
    0.0000    0.0000    0.0000 H   0  0  0  0  0  0  0  0  0  0  0  0
    0.0000    0.0000    0.0000 H   0  0  0  0  0  0  0  0  0  0  0  0
    0.0000    0.0000    0.0000 H   0  0  0  0  0  0  0  0  0  0  0  0
    0.0000    0.0000    0.0000 H   0  0  0  0  0  0  0  0  0  0  0  0
    0.0000    0.0000    0.0000 H   0  0  0  0  0  0  0  0  0  0  0  0
    0.0000    0.0000    0.0000 H   0  0  0  0  0  0  0  0  0  0  0  0
    0.0000    0.0000    0.0000 H   0  0  0  0  0  0  0  0  0  0  0  0
    0.0000    0.0000    0.0000 H   0  0  0  0  0  0  0  0  0  0  0  0
    0.0000    0.0000    0.0000 H   0  0  0  0  0  0  0  0  0  0  0  0
    0.0000    0.0000    0.0000 H   0  0  0  0  0  0  0  0  0  0  0  0
    0.0000    0.0000    0.0000 H   0  0  0  0  0  0  0  0  0  0  0  0
    0.0000    0.0000    0.0000 H   0  0  0  0  0  0  0  0  0  0  0  0
    0.0000    0.0000    0.0000 H   0  0  0  0  0  0  0  0  0  0  0  0
    0.0000    0.0000    0.0000 H   0  0  0  0  0  0  0  0  0  0  0  0
    0.0000    0.0000    0.0000 H   0  0  0  0  0  0  0  0  0  0  0  0
    0.0000    0.0000    0.0000 H   0  0  0  0  0  0  0  0  0  0  0  0
    0.0000    0.0000    0.0000 H   0  0  0  0  0  0  0  0  0  0  0  0
    0.0000    0.0000    0.0000 H   0  0  0  0  0  0  0  0  0  0  0  0
    0.0000    0.0000    0.0000 H   0  0  0  0  0  0  0  0  0  0  0  0
    0.0000    0.0000    0.0000 H   0  0  0  0  0  0  0  0  0  0  0  0
    0.0000    0.0000    0.0000 H   0  0  0  0  0  0  0  0  0  0  0  0
    0.0000    0.0000    0.0000 H   0  0  0  0  0  0  0  0  0  0  0  0
    0.0000    0.0000    0.0000 H   0  0  0  0  0  0  0  0  0  0  0  0
  1  6  1  0
  1 11  1  0
  2 12  2  0
  3 15  1  0
  4  5  1  0
  4  6  1  0
  4  7  1  0
  5  8  1  0
  5  9  1  0
  6 13  1  0
  6 14  1  0
  7 10  1  0
  8 12  1  0
  9 11  2  0
  9 15  1  0
 10 12  1  0
 11 18  1  0
 15 19  2  0
 16 17  1  0
 16 20  1  0
 16 21  1  0
 16 22  1  0
 17 18  2  0
 17 19  1  0
 20 23  1  0
 23 24  1  0
 24 25  1  0
 25 26  1  0
 26 27  1  0
  3 28  1  0
  4 29  1  6
  5 30  1  1
  7 31  1  0
  7 32  1  0
  8 33  1  0
  8 34  1  0
 10 35  1  0
 10 36  1  0
 13 37  1  0
 13 38  1  0
 13 39  1  0
 14 40  1  0
 14 41  1  0
 14 42  1  0
 18 43  1  0
 19 44  1  0
 20 45  1  0
 20 46  1  0
 21 47  1  0
 21 48  1  0
 21 49  1  0
 22 50  1  0
 22 51  1  0
 22 52  1  0
 23 53  1  0
 23 54  1  0
 24 55  1  0
 24 56  1  0
 25 57  1  0
 25 58  1  0
 26 59  1  0
 26 60  1  0
 27 61  1  0
 27 62  1  0
 27 63  1  0
M  END
>  <ALOGPS_LOGP>  (1) 
7.50

>  <ALOGPS_LOGS>  (1) 
-5.88

>  <ALOGPS_SOLUBILITY>  (1) 
4.93e-04 g/l

>  <DATABASE_ID>  (1) 
DB00486

>  <DATABASE_NAME>  (1) 
drugbank

>  <DRUGBANK_ID>  (1) 
DB00486

>  <DRUG_GROUPS>  (1) 
approved; investigational

>  <EXACT_MASS>  (1) 
372.266445018

>  <FORMULA>  (1) 
C24H36O3

>  <GENERIC_NAME>  (1) 
Nabilone

>  <INCHI_IDENTIFIER>  (1) 
InChI=1S/C24H36O3/c1-6-7-8-9-12-23(2,3)16-13-20(26)22-18-15-17(25)10-11-19(18)24(4,5)27-21(22)14-16/h13-14,18-19,26H,6-12,15H2,1-5H3/t18-,19-/m1/s1

>  <INCHI_KEY>  (1) 
GECBBEABIDMGGL-RTBURBONSA-N

>  <INTERNATIONAL_BRANDS>  (1) 
Nabilone

>  <JCHEM_ACCEPTOR_COUNT>  (1) 
3

>  <JCHEM_AVERAGE_POLARIZABILITY>  (1) 
44.91217962640465

>  <JCHEM_BIOAVAILABILITY>  (1) 
1

>  <JCHEM_DONOR_COUNT>  (1) 
1

>  <JCHEM_FORMAL_CHARGE>  (1) 
0

>  <JCHEM_GHOSE_FILTER>  (1) 
0

>  <JCHEM_IUPAC>  (1) 
(6aR,10aR)-1-hydroxy-6,6-dimethyl-3-(2-methyloctan-2-yl)-6H,6aH,7H,8H,9H,10H,10aH-benzo[c]isochromen-9-one

>  <JCHEM_LOGP>  (1) 
6.359703313333332

>  <JCHEM_MDDR_LIKE_RULE>  (1) 
1

>  <JCHEM_NUMBER_OF_RINGS>  (1) 
3

>  <JCHEM_PHYSIOLOGICAL_CHARGE>  (1) 
0

>  <JCHEM_PKA>  (1) 
19.57023531728457

>  <JCHEM_PKA_STRONGEST_ACIDIC>  (1) 
9.32819225594924

>  <JCHEM_PKA_STRONGEST_BASIC>  (1) 
-4.890939401546244

>  <JCHEM_POLAR_SURFACE_AREA>  (1) 
46.53

>  <JCHEM_REFRACTIVITY>  (1) 
110.20200000000001

>  <JCHEM_ROTATABLE_BOND_COUNT>  (1) 
6

>  <JCHEM_RULE_OF_FIVE>  (1) 
0

>  <JCHEM_TRADITIONAL_IUPAC>  (1) 
nabilone

>  <JCHEM_VEBER_RULE>  (1) 
0

>  <MOLECULAR_WEIGHT>  (1) 
372.5408

>  <PRODUCTS>  (1) 
Act Nabilone; Apo-nabilone; Cesamet; PMS-nabilone; Ran-nabilone; Teva-nabilone

>  <SECONDARY_ACCESSION_NUMBERS>  (1) 
APRD01127

>  <SMILES>  (1) 
[H][C@@]12CC(=O)CC[C@@]1([H])C(C)(C)OC1=CC(=CC(O)=C21)C(C)(C)CCCCCC

>  <SYNONYMS>  (1) 
Nabilon; Nabilona; Nabilone; Nabilonum

$$$$
