
     RDKit          2D

 53 54  0  0  1  0  0  0  0  0999 V2000
    6.9269  -17.7973    0.0000 C   0  0  0  0  0  0  0  0  0  0  0  0
    6.9269  -18.6223    0.0000 N   0  0  0  0  0  0  0  0  0  0  0  0
    6.2124  -17.3848    0.0000 C   0  0  0  0  0  0  0  0  0  0  0  0
    6.2124  -19.0348    0.0000 C   0  0  0  0  0  0  0  0  0  0  0  0
    5.4979  -17.7973    0.0000 N   0  0  0  0  0  0  0  0  0  0  0  0
    5.4979  -18.6223    0.0000 C   0  0  0  0  0  0  0  0  0  0  0  0
    7.6414  -17.3848    0.0000 C   0  0  0  0  0  0  0  0  0  0  0  0
    8.3558  -17.7973    0.0000 N   0  0  0  0  0  0  0  0  0  0  0  0
    7.6414  -16.5598    0.0000 O   0  0  0  0  0  0  0  0  0  0  0  0
    9.0703  -17.3848    0.0000 C   0  0  0  0  0  0  0  0  0  0  0  0
    9.7848  -17.7973    0.0000 C   0  0  0  0  0  0  0  0  0  0  0  0
    9.0703  -16.5598    0.0000 C   0  0  0  0  0  0  0  0  0  0  0  0
    9.7848  -16.1473    0.0000 C   0  0  0  0  0  0  0  0  0  0  0  0
    9.7848  -15.3222    0.0000 C   0  0  0  0  0  0  0  0  0  0  0  0
   10.4993  -16.5598    0.0000 C   0  0  0  0  0  0  0  0  0  0  0  0
   10.4994  -14.9097    0.0000 C   0  0  0  0  0  0  0  0  0  0  0  0
   11.2138  -16.1473    0.0000 C   0  0  0  0  0  0  0  0  0  0  0  0
   11.2138  -15.3222    0.0000 C   0  0  0  0  0  0  0  0  0  0  0  0
    9.7848  -18.6223    0.0000 O   0  0  0  0  0  0  0  0  0  0  0  0
   10.4993  -17.3848    0.0000 N   0  0  0  0  0  0  0  0  0  0  0  0
   11.2138  -17.7973    0.0000 C   0  0  0  0  0  0  0  0  0  0  0  0
   11.9282  -17.3848    0.0000 C   0  0  0  0  0  0  0  0  0  0  0  0
   12.6427  -17.7973    0.0000 C   0  0  0  0  0  0  0  0  0  0  0  0
   13.3572  -17.3848    0.0000 C   0  0  0  0  0  0  0  0  0  0  0  0
   12.6427  -18.6223    0.0000 C   0  0  0  0  0  0  0  0  0  0  0  0
   11.2138  -18.6223    0.0000 B   0  0  0  0  0  0  0  0  0  0  0  0
   10.4993  -19.0348    0.0000 O   0  0  0  0  0  0  0  0  0  0  0  0
   11.9282  -19.0348    0.0000 O   0  0  0  0  0  0  0  0  0  0  0  0
    0.0000    0.0000    0.0000 H   0  0  0  0  0  0  0  0  0  0  0  0
    0.0000    0.0000    0.0000 H   0  0  0  0  0  0  0  0  0  0  0  0
    0.0000    0.0000    0.0000 H   0  0  0  0  0  0  0  0  0  0  0  0
    0.0000    0.0000    0.0000 H   0  0  0  0  0  0  0  0  0  0  0  0
    0.0000    0.0000    0.0000 H   0  0  0  0  0  0  0  0  0  0  0  0
    0.0000    0.0000    0.0000 H   0  0  0  0  0  0  0  0  0  0  0  0
    0.0000    0.0000    0.0000 H   0  0  0  0  0  0  0  0  0  0  0  0
    0.0000    0.0000    0.0000 H   0  0  0  0  0  0  0  0  0  0  0  0
    0.0000    0.0000    0.0000 H   0  0  0  0  0  0  0  0  0  0  0  0
    0.0000    0.0000    0.0000 H   0  0  0  0  0  0  0  0  0  0  0  0
    0.0000    0.0000    0.0000 H   0  0  0  0  0  0  0  0  0  0  0  0
    0.0000    0.0000    0.0000 H   0  0  0  0  0  0  0  0  0  0  0  0
    0.0000    0.0000    0.0000 H   0  0  0  0  0  0  0  0  0  0  0  0
    0.0000    0.0000    0.0000 H   0  0  0  0  0  0  0  0  0  0  0  0
    0.0000    0.0000    0.0000 H   0  0  0  0  0  0  0  0  0  0  0  0
    0.0000    0.0000    0.0000 H   0  0  0  0  0  0  0  0  0  0  0  0
    0.0000    0.0000    0.0000 H   0  0  0  0  0  0  0  0  0  0  0  0
    0.0000    0.0000    0.0000 H   0  0  0  0  0  0  0  0  0  0  0  0
    0.0000    0.0000    0.0000 H   0  0  0  0  0  0  0  0  0  0  0  0
    0.0000    0.0000    0.0000 H   0  0  0  0  0  0  0  0  0  0  0  0
    0.0000    0.0000    0.0000 H   0  0  0  0  0  0  0  0  0  0  0  0
    0.0000    0.0000    0.0000 H   0  0  0  0  0  0  0  0  0  0  0  0
    0.0000    0.0000    0.0000 H   0  0  0  0  0  0  0  0  0  0  0  0
    0.0000    0.0000    0.0000 H   0  0  0  0  0  0  0  0  0  0  0  0
    0.0000    0.0000    0.0000 H   0  0  0  0  0  0  0  0  0  0  0  0
  2  1  2  0
  3  1  1  0
  4  2  1  0
  5  3  2  0
  6  4  2  0
  6  5  1  0
  1  7  1  0
  7  8  1  0
  7  9  2  0
 10  8  1  1
 10 11  1  0
 10 12  1  0
 14 13  2  0
 15 13  1  0
 16 14  1  0
 17 15  2  0
 18 16  2  0
 18 17  1  0
 12 13  1  0
 11 19  2  0
 11 20  1  0
 21 20  1  1
 21 22  1  0
 22 23  1  0
 23 24  1  0
 23 25  1  0
 21 26  1  0
 26 27  1  0
 26 28  1  0
  3 29  1  0
  4 30  1  0
  6 31  1  0
  8 32  1  0
 10 33  1  0
 12 34  1  0
 12 35  1  0
 14 36  1  0
 15 37  1  0
 16 38  1  0
 17 39  1  0
 18 40  1  0
 20 41  1  0
 21 42  1  0
 22 43  1  0
 22 44  1  0
 23 45  1  0
 24 46  1  0
 24 47  1  0
 24 48  1  0
 25 49  1  0
 25 50  1  0
 25 51  1  0
 27 52  1  0
 28 53  1  0
M  END
>  <ALOGPS_LOGP>  (1) 
0.89

>  <ALOGPS_LOGS>  (1) 
-3.86

>  <ALOGPS_SOLUBILITY>  (1) 
5.32e-02 g/l

>  <DATABASE_ID>  (1) 
DB00188

>  <DATABASE_NAME>  (1) 
drugbank

>  <DRUGBANK_ID>  (1) 
DB00188

>  <DRUG_GROUPS>  (1) 
approved; investigational

>  <EXACT_MASS>  (1) 
384.196885774

>  <FORMULA>  (1) 
C19H25BN4O4

>  <GENERIC_NAME>  (1) 
Bortezomib

>  <INCHI_IDENTIFIER>  (1) 
InChI=1S/C19H25BN4O4/c1-13(2)10-17(20(27)28)24-18(25)15(11-14-6-4-3-5-7-14)23-19(26)16-12-21-8-9-22-16/h3-9,12-13,15,17,27-28H,10-11H2,1-2H3,(H,23,26)(H,24,25)/t15-,17-/m0/s1

>  <INCHI_KEY>  (1) 
GXJABQQUPOEUTA-RDJZCZTQSA-N

>  <JCHEM_ACCEPTOR_COUNT>  (1) 
6

>  <JCHEM_AVERAGE_POLARIZABILITY>  (1) 
40.47959960860195

>  <JCHEM_BIOAVAILABILITY>  (1) 
1

>  <JCHEM_DONOR_COUNT>  (1) 
4

>  <JCHEM_FORMAL_CHARGE>  (1) 
0

>  <JCHEM_GHOSE_FILTER>  (1) 
1

>  <JCHEM_IUPAC>  (1) 
[(1R)-3-methyl-1-[(2S)-3-phenyl-2-(pyrazin-2-ylformamido)propanamido]butyl]boronic acid

>  <JCHEM_LOGP>  (1) 
1.5303000000000004

>  <JCHEM_MDDR_LIKE_RULE>  (1) 
0

>  <JCHEM_NUMBER_OF_RINGS>  (1) 
2

>  <JCHEM_PHYSIOLOGICAL_CHARGE>  (1) 
0

>  <JCHEM_PKA>  (1) 
13.82409734011327

>  <JCHEM_PKA_STRONGEST_ACIDIC>  (1) 
13.037310355452274

>  <JCHEM_PKA_STRONGEST_BASIC>  (1) 
-0.6960069020998824

>  <JCHEM_POLAR_SURFACE_AREA>  (1) 
124.44000000000001

>  <JCHEM_REFRACTIVITY>  (1) 
99.37379999999999

>  <JCHEM_ROTATABLE_BOND_COUNT>  (1) 
9

>  <JCHEM_RULE_OF_FIVE>  (1) 
1

>  <JCHEM_TRADITIONAL_IUPAC>  (1) 
bortezomib

>  <JCHEM_VEBER_RULE>  (1) 
0

>  <MOLECULAR_WEIGHT>  (1) 
384.237

>  <PRODUCTS>  (1) 
Act Bortezomib; Bortezomib; Bortezomib Accord; Bortezomib Hospira; Bortezomib Sun; Bortezomib for Injection; PMS-bortezomib; Velcade

>  <SECONDARY_ACCESSION_NUMBERS>  (1) 
APRD00828; DB07475

>  <SMILES>  (1) 
CC(C)C[C@H](NC(=O)[C@H](CC1=CC=CC=C1)NC(=O)C1=CN=CC=N1)B(O)O

>  <SYNONYMS>  (1) 
[(1R)-3-methyl-1-({(2S)-3-phenyl-2-[(pyrazin-2-ylcarbonyl)amino]propanoyl}amino)butyl]boronic acid; N-[(1R)-1-(DIHYDROXYBORYL)-3-methylbutyl]-N-(pyrazin-2-ylcarbonyl)-L-phenylalaninamide; N-[(1R)-1-(DIHYDROXYBORYL)-3-METHYLBUTYL]-N-(PYRAZIN-2-YLCARBONYL)-L-PHENYLALANINAMIDE

$$$$
