740
     RDKit          2D

 20 21  0  0  0  0  0  0  0  0999 V2000
    6.0031    0.5129    0.0000 S   0  0  0  0  0  0  0  0  0  0  0  0
    2.7770   -0.4529    0.0000 F   0  0  0  0  0  0  0  0  0  0  0  0
    1.6500   -0.1510    0.0000 F   0  0  0  0  0  0  0  0  0  0  0  0
    1.9520    0.9760    0.0000 F   0  0  0  0  0  0  0  0  0  0  0  0
    3.0791    0.6740    0.0000 O   0  0  0  0  0  0  0  0  0  0  0  0
    6.0031   -0.8149    0.0000 N   0  0  0  0  0  0  0  0  0  0  0  0
    7.3097   -0.1510    0.0000 N   0  0  0  0  0  0  0  0  0  0  0  0
    5.2224    0.2615    0.0000 C   0  0  0  0  0  0  0  0  0  0  0  0
    5.2224   -0.5635    0.0000 C   0  0  0  0  0  0  0  0  0  0  0  0
    4.5080    0.6740    0.0000 C   0  0  0  0  0  0  0  0  0  0  0  0
    3.7935    0.2615    0.0000 C   0  0  0  0  0  0  0  0  0  0  0  0
    4.5080   -0.9760    0.0000 C   0  0  0  0  0  0  0  0  0  0  0  0
    3.7935   -0.5635    0.0000 C   0  0  0  0  0  0  0  0  0  0  0  0
    6.4846   -0.1510    0.0000 C   0  0  0  0  0  0  0  0  0  0  0  0
    2.3645    0.2615    0.0000 C   0  0  0  0  0  0  0  0  0  0  0  0
    0.0000    0.0000    0.0000 H   0  0  0  0  0  0  0  0  0  0  0  0
    0.0000    0.0000    0.0000 H   0  0  0  0  0  0  0  0  0  0  0  0
    0.0000    0.0000    0.0000 H   0  0  0  0  0  0  0  0  0  0  0  0
    0.0000    0.0000    0.0000 H   0  0  0  0  0  0  0  0  0  0  0  0
    0.0000    0.0000    0.0000 H   0  0  0  0  0  0  0  0  0  0  0  0
  1  8  1  0
  1 14  1  0
  2 15  1  0
  3 15  1  0
  4 15  1  0
  5 11  1  0
  5 15  1  0
  6  9  1  0
  6 14  2  0
  7 14  1  0
  8  9  2  0
  8 10  1  0
  9 12  1  0
 10 11  2  0
 11 13  1  0
 12 13  2  0
  7 16  1  0
  7 17  1  0
 10 18  1  0
 12 19  1  0
 13 20  1  0
M  END
>  <ALOGPS_LOGP>  (1) 
2.83

>  <ALOGPS_LOGS>  (1) 
-3.77

>  <ALOGPS_SOLUBILITY>  (1) 
3.95e-02 g/l

>  <DATABASE_ID>  (1) 
DB00740

>  <DATABASE_NAME>  (1) 
drugbank

>  <DRUGBANK_ID>  (1) 
DB00740

>  <DRUG_GROUPS>  (1) 
approved; investigational

>  <EXACT_MASS>  (1) 
234.007468097

>  <FORMULA>  (1) 
C8H5F3N2OS

>  <GENERIC_NAME>  (1) 
Riluzole

>  <INCHI_IDENTIFIER>  (1) 
InChI=1S/C8H5F3N2OS/c9-8(10,11)14-4-1-2-5-6(3-4)15-7(12)13-5/h1-3H,(H2,12,13)

>  <INCHI_KEY>  (1) 
FTALBRSUTCGOEG-UHFFFAOYSA-N

>  <INTERNATIONAL_BRANDS>  (1) 
Fanizan; Laidec; Lizolorol; Lizorolol; Rilustad; Sclefic; Xie Yi Li; Zolerilis

>  <JCHEM_ACCEPTOR_COUNT>  (1) 
3

>  <JCHEM_AVERAGE_POLARIZABILITY>  (1) 
18.58773356890207

>  <JCHEM_BIOAVAILABILITY>  (1) 
1

>  <JCHEM_DONOR_COUNT>  (1) 
1

>  <JCHEM_FORMAL_CHARGE>  (1) 
0

>  <JCHEM_GHOSE_FILTER>  (1) 
1

>  <JCHEM_IUPAC>  (1) 
6-(trifluoromethoxy)-1,3-benzothiazol-2-amine

>  <JCHEM_LOGP>  (1) 
3.3999074026666665

>  <JCHEM_MDDR_LIKE_RULE>  (1) 
0

>  <JCHEM_NUMBER_OF_RINGS>  (1) 
2

>  <JCHEM_PHYSIOLOGICAL_CHARGE>  (1) 
0

>  <JCHEM_PKA_STRONGEST_ACIDIC>  (1) 
16.44059219702281

>  <JCHEM_PKA_STRONGEST_BASIC>  (1) 
4.573084910451721

>  <JCHEM_POLAR_SURFACE_AREA>  (1) 
48.14

>  <JCHEM_REFRACTIVITY>  (1) 
44.3727

>  <JCHEM_ROTATABLE_BOND_COUNT>  (1) 
2

>  <JCHEM_RULE_OF_FIVE>  (1) 
1

>  <JCHEM_TRADITIONAL_IUPAC>  (1) 
riluzole

>  <JCHEM_VEBER_RULE>  (1) 
0

>  <MOLECULAR_WEIGHT>  (1) 
234.198

>  <PRODUCTS>  (1) 
Apo-riluzole; Mylan-riluzole; Rilutek; Riluzole; Riluzole Zentiva

>  <SALTS>  (1) 
Riluzole Hydrochloride

>  <SECONDARY_ACCESSION_NUMBERS>  (1) 
APRD00145

>  <SMILES>  (1) 
NC1=NC2=C(S1)C=C(OC(F)(F)F)C=C2

>  <SYNONYMS>  (1) 
Riluzol; Riluzole; Riluzolum

$$$$
