
     RDKit          2D

 53 55  0  0  1  0  0  0  0  0999 V2000
    7.6955   -5.8135    0.0000 C   0  0  0  0  0  0  0  0  0  0  0  0
    8.4043   -6.2242    0.0000 C   0  0  0  0  0  0  0  0  0  0  0  0
    6.9797   -6.2242    0.0000 C   0  0  0  0  0  0  0  0  0  0  0  0
    7.6989   -4.9925    0.0000 C   0  0  0  0  0  0  0  0  0  0  0  0
    8.4043   -7.0523    0.0000 C   0  0  0  0  0  0  0  0  0  0  0  0
    9.1200   -5.8135    0.0000 C   0  0  0  0  0  0  0  0  0  0  0  0
    6.9797   -7.0523    0.0000 C   0  0  0  0  0  0  0  0  0  0  0  0
    6.2674   -5.8101    0.0000 C   0  0  0  0  0  0  0  0  0  0  0  0
    6.9833   -4.5786    0.0000 C   0  0  0  0  0  0  0  0  0  0  0  0
    7.6955   -7.4627    0.0000 O   0  0  0  0  0  0  0  0  0  0  0  0
    9.1200   -7.4627    0.0000 C   0  0  0  0  0  0  0  0  0  0  0  0
    9.8289   -6.2242    0.0000 C   0  0  0  0  0  0  0  0  0  0  0  0
    9.1200   -4.9891    0.0000 O   0  0  0  0  0  0  0  0  0  0  0  0
    6.2674   -4.9891    0.0000 C   0  0  0  0  0  0  0  0  0  0  0  0
    6.9867   -3.7575    0.0000 C   0  0  0  0  0  0  0  0  0  0  0  0
    9.8289   -7.0523    0.0000 C   0  0  0  0  0  0  0  0  0  0  0  0
   10.5411   -7.4627    0.0000 C   0  0  0  0  0  0  0  0  0  0  0  0
   11.2569   -7.0487    0.0000 C   0  0  0  0  0  0  0  0  0  0  0  0
   11.9656   -7.4593    0.0000 C   0  0  0  0  0  0  0  0  0  0  0  0
   12.6814   -7.0487    0.0000 C   0  0  0  0  0  0  0  0  0  0  0  0
   13.3901   -7.4593    0.0000 C   0  0  0  0  0  0  0  0  0  0  0  0
    6.9797   -7.8773    0.0000 C   0  0  0  0  0  0  0  0  0  0  0  0
    6.2652   -7.4648    0.0000 C   0  0  0  0  0  0  0  0  0  0  0  0
    0.0000    0.0000    0.0000 H   0  0  0  0  0  0  0  0  0  0  0  0
    0.0000    0.0000    0.0000 H   0  0  0  0  0  0  0  0  0  0  0  0
    0.0000    0.0000    0.0000 H   0  0  0  0  0  0  0  0  0  0  0  0
    0.0000    0.0000    0.0000 H   0  0  0  0  0  0  0  0  0  0  0  0
    0.0000    0.0000    0.0000 H   0  0  0  0  0  0  0  0  0  0  0  0
    0.0000    0.0000    0.0000 H   0  0  0  0  0  0  0  0  0  0  0  0
    0.0000    0.0000    0.0000 H   0  0  0  0  0  0  0  0  0  0  0  0
    0.0000    0.0000    0.0000 H   0  0  0  0  0  0  0  0  0  0  0  0
    0.0000    0.0000    0.0000 H   0  0  0  0  0  0  0  0  0  0  0  0
    0.0000    0.0000    0.0000 H   0  0  0  0  0  0  0  0  0  0  0  0
    0.0000    0.0000    0.0000 H   0  0  0  0  0  0  0  0  0  0  0  0
    0.0000    0.0000    0.0000 H   0  0  0  0  0  0  0  0  0  0  0  0
    0.0000    0.0000    0.0000 H   0  0  0  0  0  0  0  0  0  0  0  0
    0.0000    0.0000    0.0000 H   0  0  0  0  0  0  0  0  0  0  0  0
    0.0000    0.0000    0.0000 H   0  0  0  0  0  0  0  0  0  0  0  0
    0.0000    0.0000    0.0000 H   0  0  0  0  0  0  0  0  0  0  0  0
    0.0000    0.0000    0.0000 H   0  0  0  0  0  0  0  0  0  0  0  0
    0.0000    0.0000    0.0000 H   0  0  0  0  0  0  0  0  0  0  0  0
    0.0000    0.0000    0.0000 H   0  0  0  0  0  0  0  0  0  0  0  0
    0.0000    0.0000    0.0000 H   0  0  0  0  0  0  0  0  0  0  0  0
    0.0000    0.0000    0.0000 H   0  0  0  0  0  0  0  0  0  0  0  0
    0.0000    0.0000    0.0000 H   0  0  0  0  0  0  0  0  0  0  0  0
    0.0000    0.0000    0.0000 H   0  0  0  0  0  0  0  0  0  0  0  0
    0.0000    0.0000    0.0000 H   0  0  0  0  0  0  0  0  0  0  0  0
    0.0000    0.0000    0.0000 H   0  0  0  0  0  0  0  0  0  0  0  0
    0.0000    0.0000    0.0000 H   0  0  0  0  0  0  0  0  0  0  0  0
    0.0000    0.0000    0.0000 H   0  0  0  0  0  0  0  0  0  0  0  0
    0.0000    0.0000    0.0000 H   0  0  0  0  0  0  0  0  0  0  0  0
    0.0000    0.0000    0.0000 H   0  0  0  0  0  0  0  0  0  0  0  0
    0.0000    0.0000    0.0000 H   0  0  0  0  0  0  0  0  0  0  0  0
  1  2  1  0
  1  3  1  0
  1  4  1  0
  2  5  2  0
  2  6  1  0
  3  7  1  0
  3  8  1  0
  4  9  2  0
  5 10  1  0
  5 11  1  0
  6 12  2  0
  6 13  1  0
  8 14  1  0
  9 15  1  0
 11 16  2  0
 16 17  1  0
 17 18  1  0
 18 19  1  0
 19 20  1  0
 20 21  1  0
  7 10  1  0
  9 14  1  0
 12 16  1  0
  7 22  1  0
  7 23  1  0
  1 24  1  6
  3 25  1  1
  4 26  1  0
  8 27  1  0
  8 28  1  0
 11 29  1  0
 12 30  1  0
 13 31  1  0
 14 32  1  0
 14 33  1  0
 15 34  1  0
 15 35  1  0
 15 36  1  0
 17 37  1  0
 17 38  1  0
 18 39  1  0
 18 40  1  0
 19 41  1  0
 19 42  1  0
 20 43  1  0
 20 44  1  0
 21 45  1  0
 21 46  1  0
 21 47  1  0
 22 48  1  0
 22 49  1  0
 22 50  1  0
 23 51  1  0
 23 52  1  0
 23 53  1  0
M  END
>  <ALOGPS_LOGP>  (1) 
7.29

>  <ALOGPS_LOGS>  (1) 
-5.08

>  <ALOGPS_SOLUBILITY>  (1) 
2.63e-03 g/l

>  <DATABASE_ID>  (1) 
DB00470

>  <DATABASE_NAME>  (1) 
drugbank

>  <DRUGBANK_ID>  (1) 
DB00470

>  <DRUG_GROUPS>  (1) 
approved; illicit

>  <EXACT_MASS>  (1) 
314.224580204

>  <FORMULA>  (1) 
C21H30O2

>  <GENERIC_NAME>  (1) 
Dronabinol

>  <INCHI_IDENTIFIER>  (1) 
InChI=1S/C21H30O2/c1-5-6-7-8-15-12-18(22)20-16-11-14(2)9-10-17(16)21(3,4)23-19(20)13-15/h11-13,16-17,22H,5-10H2,1-4H3/t16-,17-/m1/s1

>  <INCHI_KEY>  (1) 
CYQFCXCEBYINGO-IAGOWNOFSA-N

>  <JCHEM_ACCEPTOR_COUNT>  (1) 
2

>  <JCHEM_AVERAGE_POLARIZABILITY>  (1) 
38.956941218234675

>  <JCHEM_BIOAVAILABILITY>  (1) 
1

>  <JCHEM_DONOR_COUNT>  (1) 
1

>  <JCHEM_FORMAL_CHARGE>  (1) 
0

>  <JCHEM_GHOSE_FILTER>  (1) 
0

>  <JCHEM_IUPAC>  (1) 
(6aR,10aR)-6,6,9-trimethyl-3-pentyl-6H,6aH,7H,8H,10aH-benzo[c]isochromen-1-ol

>  <JCHEM_LOGP>  (1) 
5.944157107333333

>  <JCHEM_MDDR_LIKE_RULE>  (1) 
0

>  <JCHEM_NUMBER_OF_RINGS>  (1) 
3

>  <JCHEM_PHYSIOLOGICAL_CHARGE>  (1) 
0

>  <JCHEM_PKA_STRONGEST_ACIDIC>  (1) 
9.342429150192967

>  <JCHEM_PKA_STRONGEST_BASIC>  (1) 
-4.893304388168227

>  <JCHEM_POLAR_SURFACE_AREA>  (1) 
29.46

>  <JCHEM_REFRACTIVITY>  (1) 
96.73350000000002

>  <JCHEM_ROTATABLE_BOND_COUNT>  (1) 
4

>  <JCHEM_RULE_OF_FIVE>  (1) 
0

>  <JCHEM_TRADITIONAL_IUPAC>  (1) 
THC

>  <JCHEM_VEBER_RULE>  (1) 
1

>  <MOLECULAR_WEIGHT>  (1) 
314.4617

>  <PRODUCTS>  (1) 
Dronabinol; Marinol; Marinol Cap 10mg; Sativex; Syndros

>  <SECONDARY_ACCESSION_NUMBERS>  (1) 
APRD00571

>  <SMILES>  (1) 
[H][C@@]12C=C(C)CC[C@@]1([H])C(C)(C)OC1=C2C(O)=CC(CCCCC)=C1

>  <SYNONYMS>  (1) 
1-trans-delta-9-Tetrahydrocannabinol; delta-9-tetrahydrocannabinol; delta-9-THC; Dronabinolum; Tetrahydrocannabinol; Î”9-tetrahydrocannabinol

$$$$
