
     RDKit          2D

 10  9  0  0  0  0  0  0  0  0999 V2000
    2.0930    0.6188    0.0000 O   0  0  0  0  0  0  0  0  0  0  0  0
    2.8075   -0.6188    0.0000 O   0  0  0  0  0  0  0  0  0  0  0  0
    4.2365    0.2063    0.0000 N   0  0  0  0  0  0  0  0  0  0  0  0
    3.5220    0.6188    0.0000 C   0  0  0  0  0  0  0  0  0  0  0  0
    2.8075    0.2063    0.0000 C   0  0  0  0  0  0  0  0  0  0  0  0
    0.0000    0.0000    0.0000 H   0  0  0  0  0  0  0  0  0  0  0  0
    0.0000    0.0000    0.0000 H   0  0  0  0  0  0  0  0  0  0  0  0
    0.0000    0.0000    0.0000 H   0  0  0  0  0  0  0  0  0  0  0  0
    0.0000    0.0000    0.0000 H   0  0  0  0  0  0  0  0  0  0  0  0
    0.0000    0.0000    0.0000 H   0  0  0  0  0  0  0  0  0  0  0  0
  1  5  1  0
  2  5  2  0
  3  4  1  0
  4  5  1  0
  1  6  1  0
  3  7  1  0
  3  8  1  0
  4  9  1  0
  4 10  1  0
M  END
>  <ALOGPS_LOGP>  (1) 
-3.34

>  <ALOGPS_LOGS>  (1) 
0.87

>  <ALOGPS_SOLUBILITY>  (1) 
5.52e+02 g/l

>  <DATABASE_ID>  (1) 
DB00145

>  <DATABASE_NAME>  (1) 
drugbank

>  <DRUGBANK_ID>  (1) 
DB00145

>  <DRUG_GROUPS>  (1) 
approved; nutraceutical; vet_approved

>  <EXACT_MASS>  (1) 
75.032028409

>  <FORMULA>  (1) 
C2H5NO2

>  <GENERIC_NAME>  (1) 
Glycine

>  <INCHI_IDENTIFIER>  (1) 
InChI=1S/C2H5NO2/c3-1-2(4)5/h1,3H2,(H,4,5)

>  <INCHI_KEY>  (1) 
DHMQDGOQFOQNFH-UHFFFAOYSA-N

>  <INTERNATIONAL_BRANDS>  (1) 
Gyn-Hydralin

>  <JCHEM_ACCEPTOR_COUNT>  (1) 
3

>  <JCHEM_AVERAGE_POLARIZABILITY>  (1) 
6.647019971293105

>  <JCHEM_BIOAVAILABILITY>  (1) 
1

>  <JCHEM_DONOR_COUNT>  (1) 
2

>  <JCHEM_FORMAL_CHARGE>  (1) 
0

>  <JCHEM_GHOSE_FILTER>  (1) 
0

>  <JCHEM_IUPAC>  (1) 
2-aminoacetic acid

>  <JCHEM_LOGP>  (1) 
-3.409459573132419

>  <JCHEM_MDDR_LIKE_RULE>  (1) 
0

>  <JCHEM_NUMBER_OF_RINGS>  (1) 
0

>  <JCHEM_PHYSIOLOGICAL_CHARGE>  (1) 
0

>  <JCHEM_PKA_STRONGEST_ACIDIC>  (1) 
2.3074568824727404

>  <JCHEM_PKA_STRONGEST_BASIC>  (1) 
9.240341660583645

>  <JCHEM_POLAR_SURFACE_AREA>  (1) 
63.31999999999999

>  <JCHEM_REFRACTIVITY>  (1) 
16.0034

>  <JCHEM_ROTATABLE_BOND_COUNT>  (1) 
1

>  <JCHEM_RULE_OF_FIVE>  (1) 
1

>  <JCHEM_TRADITIONAL_IUPAC>  (1) 
glycine

>  <JCHEM_VEBER_RULE>  (1) 
0

>  <MOLECULAR_WEIGHT>  (1) 
75.0666

>  <PRODUCTS>  (1) 
2.5% Travasol Amino Acid Injection With Electrolytes In 10% Dextrose; 2.5% Travasol Amino Acid Injection With Electrolytes In 10% Dextrose Clinimix; 2.5% Travasol Amino Acid Injection Without Electrolytes In 10% Dextrose Quickmix; 2.5%travasol Amino Acid InJ.W.eleC.W.25%dex; 2.75% Travas. Amino Acid InJ.W.elecw.25%dex; 2.75% Travasol Amino Acid Injection With Electrolytes In 25% Dextrose Quickmix; 2.75% Travasol Amino Acid Injection With Electrolytes In 5% Dextrose Quickmix; 2.75%travasol Amino Acid InJ.W.eleC.W.5%dex.; 4.25% Amino Acid Injection Without Electrolytes In 20% Dextrose Quickmix; 4.25% Travasol Amino Acid Injection With Electrolytes In 10% Dextrose; 4.25% Travasol Amino Acid Injection With Electrolytes In 20% Dextrose; 4.25% Travasol Amino Acid Injection With Electrolytes In 20% Dextrose Quickmix; 4.25% Travasol Amino Acid Injection With Electrolytes In 25% Dextrose; 4.25% Travasol Amino Acid Injection With Electrolytes In 5% Dextrose Quickmix; 4.25% Travasol Amino Acid Injection Without Electrlytes In 10% Dextrose; 4.25% Travasol Amino Acid Injection Without Electrolytes In 20% Dextrose; 4.25% Travasol Amino Acid Injection Without Electrolytes In 25% Dextrose; 4.25% Travasol Amino Acid Without Electrolytes In 5% Dextrose Quickmix; 4.25%trav. Amino Acid InJ.W.O.elect.5%dext.; 4.25%travasol Amino Acid InJ.W.elecw.5%dex.; 5% Travasol Amino Acid Injection With Electrolytes In 20% Dextrose; 5% Travasol Amino Acid Injection Without Electrolytes In 20% Dextrose; 5% Travasol Amino Acid Injection Without Electrolytes In 25% Dextrose; Aminoderm Poudre; Aminosyn; Aminosyn 10%; Aminosyn 10% W Electrolytes; Aminosyn 3.5% M; Aminosyn 5%; Aminosyn 7%; Aminosyn 8.5%; Aminosyn 8.5% Injection With Electrolytes; Aminosyn II; Aminosyn II 10%; Aminosyn II 10% With Electrolytes; Aminosyn II 15%; Aminosyn II 5% Inj; Aminosyn II 7% Injection; Aminosyn II 7% M In 10% Dextrose(dual Chamber); Aminosyn II 7% With 10% Dextrose; Aminosyn II 7% With 50% Dextrose; Aminosyn II 8.5% Injection; Aminosyn II 8.5% M In 20% Dextrose (dual Chamber); Aminosyn II 8.5% With 50% Dextrose; Aminosyn II In Dextrose Injection; Aminosyn II with Electrolytes; Aminosyn Sulfite Free; Aminosyn-PF; Aminosyn-PF 10%; Aminosyn-PF 7%; Antacid 2 Tablets; Cicatrin Powder; Clinimix; Clinimix 2.5% Travasol Aa Without Electrolytes In 10% Dextrose Injec; Clinimix E; Clinisol; FreAmine HBC; FreAmine III; Glycine; Glycine 1.5% Irrigation USP Sol; Glycine Irrigation 1.5% USP; Glycine Irrigation USP; HepatAmine; Novamine; Olimel 3.3% E; Olimel 4.4%; Olimel 4.4% E; Olimel 5.7%; Olimel 5.7% E; Periolimel 2.5% E; Ph 12 Sterile Diluent for Flolan; Plenamine; Premasol - sulfite-free (Amino Acid); Primene 10%; Primene 10%-liq IV; ProSol; Quick Mix 2.5% Travasol Aa With Electrolytes With 25% Dextrose Injec; Renamin (amino Acids) Injection; Sterile Diluent for Flolan Injection; Travasol; Travasol Amino Acid Inj 5.5%; Travasol Amino Acid Inj 8.5%; Travasol E; Travasol Inj Without Electrolytes 5.5%; TrophAmine; Vamin 18 Electrolyte-free; Vamin N

>  <SECONDARY_ACCESSION_NUMBERS>  (1) 
NUTR00028

>  <SMILES>  (1) 
NCC(O)=O

>  <SYNONYMS>  (1) 
Aminoacetic acid; Aminoessigs√§ure; Aminoethanoic acid; Gly; Glycin; Glycocoll; Glykokoll; Glyzin; Leimzucker

$$$$
