456
     RDKit          2D

 42 44  0  0  1  0  0  0  0  0999 V2000
    5.2224   -1.2711    0.0000 S   0  0  0  0  0  0  0  0  0  0  0  0
    9.8251   -0.8378    0.0000 S   0  0  0  0  0  0  0  0  0  0  0  0
    7.3510    0.5544    0.0000 O   0  0  0  0  0  0  0  0  0  0  0  0
    3.0791   -0.0336    0.0000 O   0  0  0  0  0  0  0  0  0  0  0  0
    4.5080    1.6165    0.0000 O   0  0  0  0  0  0  0  0  0  0  0  0
    8.3635   -0.4382    0.0000 O   0  0  0  0  0  0  0  0  0  0  0  0
    5.9370    1.6165    0.0000 O   0  0  0  0  0  0  0  0  0  0  0  0
    2.3645    1.2039    0.0000 O   0  0  0  0  0  0  0  0  0  0  0  0
    5.9370   -0.0336    0.0000 N   0  0  0  0  0  0  0  0  0  0  0  0
    7.3510   -1.4466    0.0000 N   0  0  0  0  0  0  0  0  0  0  0  0
    5.9370   -0.8586    0.0000 C   0  0  0  0  0  0  0  0  0  0  0  0
    6.7688   -0.8621    0.0000 C   0  0  0  0  0  0  0  0  0  0  0  0
    6.7688   -0.0302    0.0000 C   0  0  0  0  0  0  0  0  0  0  0  0
    5.2224    0.3789    0.0000 C   0  0  0  0  0  0  0  0  0  0  0  0
    4.5080   -0.0336    0.0000 C   0  0  0  0  0  0  0  0  0  0  0  0
    4.5080   -0.8586    0.0000 C   0  0  0  0  0  0  0  0  0  0  0  0
    3.7935    0.3789    0.0000 C   0  0  0  0  0  0  0  0  0  0  0  0
    8.1483   -1.2347    0.0000 C   0  0  0  0  0  0  0  0  0  0  0  0
    5.2224    1.2039    0.0000 C   0  0  0  0  0  0  0  0  0  0  0  0
    8.7305   -1.8193    0.0000 C   0  0  0  0  0  0  0  0  0  0  0  0
    9.5278   -1.6074    0.0000 C   0  0  0  0  0  0  0  0  0  0  0  0
    2.3645    0.3789    0.0000 C   0  0  0  0  0  0  0  0  0  0  0  0
   10.1679   -2.1280    0.0000 C   0  0  0  0  0  0  0  0  0  0  0  0
   10.8608   -1.6800    0.0000 C   0  0  0  0  0  0  0  0  0  0  0  0
   10.6489   -0.8827    0.0000 C   0  0  0  0  0  0  0  0  0  0  0  0
    1.6500   -0.0336    0.0000 C   0  0  0  0  0  0  0  0  0  0  0  0
    0.0000    0.0000    0.0000 H   0  0  0  0  0  0  0  0  0  0  0  0
    0.0000    0.0000    0.0000 H   0  0  0  0  0  0  0  0  0  0  0  0
    0.0000    0.0000    0.0000 H   0  0  0  0  0  0  0  0  0  0  0  0
    0.0000    0.0000    0.0000 H   0  0  0  0  0  0  0  0  0  0  0  0
    0.0000    0.0000    0.0000 H   0  0  0  0  0  0  0  0  0  0  0  0
    0.0000    0.0000    0.0000 H   0  0  0  0  0  0  0  0  0  0  0  0
    0.0000    0.0000    0.0000 H   0  0  0  0  0  0  0  0  0  0  0  0
    0.0000    0.0000    0.0000 H   0  0  0  0  0  0  0  0  0  0  0  0
    0.0000    0.0000    0.0000 H   0  0  0  0  0  0  0  0  0  0  0  0
    0.0000    0.0000    0.0000 H   0  0  0  0  0  0  0  0  0  0  0  0
    0.0000    0.0000    0.0000 H   0  0  0  0  0  0  0  0  0  0  0  0
    0.0000    0.0000    0.0000 H   0  0  0  0  0  0  0  0  0  0  0  0
    0.0000    0.0000    0.0000 H   0  0  0  0  0  0  0  0  0  0  0  0
    0.0000    0.0000    0.0000 H   0  0  0  0  0  0  0  0  0  0  0  0
    0.0000    0.0000    0.0000 H   0  0  0  0  0  0  0  0  0  0  0  0
    0.0000    0.0000    0.0000 H   0  0  0  0  0  0  0  0  0  0  0  0
  1 11  1  0
  1 16  1  0
  2 21  1  0
  2 25  1  0
  3 13  2  0
  4 17  1  0
  4 22  1  0
  5 19  1  0
  6 18  2  0
  7 19  2  0
  8 22  2  0
  9 11  1  0
  9 13  1  0
  9 14  1  0
 12 10  1  6
 10 18  1  0
 11 12  1  0
 12 13  1  0
 14 15  2  0
 14 19  1  0
 15 16  1  0
 15 17  1  0
 18 20  1  0
 20 21  1  0
 21 23  2  0
 22 26  1  0
 23 24  1  0
 24 25  2  0
  5 27  1  0
 10 28  1  0
 11 29  1  6
 12 30  1  0
 16 31  1  0
 16 32  1  0
 17 33  1  0
 17 34  1  0
 20 35  1  0
 20 36  1  0
 23 37  1  0
 24 38  1  0
 25 39  1  0
 26 40  1  0
 26 41  1  0
 26 42  1  0
M  END
>  <ALOGPS_LOGP>  (1) 
0.63

>  <ALOGPS_LOGS>  (1) 
-3.88

>  <ALOGPS_SOLUBILITY>  (1) 
5.21e-02 g/l

>  <DATABASE_ID>  (1) 
DB00456

>  <DATABASE_NAME>  (1) 
drugbank

>  <DRUGBANK_ID>  (1) 
DB00456

>  <DRUG_GROUPS>  (1) 
approved; vet_approved

>  <EXACT_MASS>  (1) 
396.044977634

>  <FORMULA>  (1) 
C16H16N2O6S2

>  <GENERIC_NAME>  (1) 
Cefalotin

>  <INCHI_IDENTIFIER>  (1) 
InChI=1S/C16H16N2O6S2/c1-8(19)24-6-9-7-26-15-12(14(21)18(15)13(9)16(22)23)17-11(20)5-10-3-2-4-25-10/h2-4,12,15H,5-7H2,1H3,(H,17,20)(H,22,23)/t12-,15-/m1/s1

>  <INCHI_KEY>  (1) 
XIURVHNZVLADCM-IUODEOHRSA-N

>  <INTERNATIONAL_BRANDS>  (1) 
Coaxin; Keflin

>  <JCHEM_ACCEPTOR_COUNT>  (1) 
5

>  <JCHEM_AVERAGE_POLARIZABILITY>  (1) 
37.22362559008537

>  <JCHEM_BIOAVAILABILITY>  (1) 
1

>  <JCHEM_DONOR_COUNT>  (1) 
2

>  <JCHEM_FORMAL_CHARGE>  (1) 
0

>  <JCHEM_GHOSE_FILTER>  (1) 
1

>  <JCHEM_IUPAC>  (1) 
(6R,7R)-3-[(acetyloxy)methyl]-8-oxo-7-[2-(thiophen-2-yl)acetamido]-5-thia-1-azabicyclo[4.2.0]oct-2-ene-2-carboxylic acid

>  <JCHEM_LOGP>  (1) 
0.016272906666666753

>  <JCHEM_MDDR_LIKE_RULE>  (1) 
1

>  <JCHEM_NUMBER_OF_RINGS>  (1) 
3

>  <JCHEM_PHYSIOLOGICAL_CHARGE>  (1) 
-1

>  <JCHEM_PKA>  (1) 
11.75078639741283

>  <JCHEM_PKA_STRONGEST_ACIDIC>  (1) 
3.6259069250057236

>  <JCHEM_PKA_STRONGEST_BASIC>  (1) 
-3.2600615494762066

>  <JCHEM_POLAR_SURFACE_AREA>  (1) 
113.01

>  <JCHEM_REFRACTIVITY>  (1) 
93.79400000000004

>  <JCHEM_ROTATABLE_BOND_COUNT>  (1) 
7

>  <JCHEM_RULE_OF_FIVE>  (1) 
1

>  <JCHEM_TRADITIONAL_IUPAC>  (1) 
cephalothin

>  <JCHEM_VEBER_RULE>  (1) 
0

>  <MOLECULAR_WEIGHT>  (1) 
396.438

>  <PRODUCTS>  (1) 
Ceporacin; Keflin Add-vantage Inj 1gm/vial; Keflin Neutral Inj 1gm; Keflin Neutral Inj 2gm/vial

>  <SALTS>  (1) 
Cefalotin Sodium

>  <SECONDARY_ACCESSION_NUMBERS>  (1) 
APRD00859; EXPT00946

>  <SMILES>  (1) 
[H][C@]12SCC(COC(C)=O)=C(N1C(=O)[C@H]2NC(=O)CC1=CC=CS1)C(O)=O

>  <SYNONYMS>  (1) 
Cefalothin; Cefalotina; Cefalotine; Cefalotinum; Cephalothin; Cephalotin

$$$$
