
     RDKit          2D

 18 18  0  0  1  0  0  0  0  0999 V2000
   -0.7145   -0.4125    0.0000 C   0  0  0  0  0  0  0  0  0  0  0  0
    0.0000   -0.8250    0.0000 C   0  0  0  0  0  0  0  0  0  0  0  0
    0.7145   -0.4125    0.0000 C   0  0  0  0  0  0  0  0  0  0  0  0
   -0.7145    0.4125    0.0000 C   0  0  0  0  0  0  0  0  0  0  0  0
    0.7145    0.4125    0.0000 C   0  0  0  0  0  0  0  0  0  0  0  0
    0.0000    0.8250    0.0000 C   0  0  0  0  0  0  0  0  0  0  0  0
    1.4289   -0.8250    0.0000 Cl  0  0  0  0  0  0  0  0  0  0  0  0
    0.0000    1.6500    0.0000 Cl  0  0  0  0  0  0  0  0  0  0  0  0
   -1.4289   -0.8250    0.0000 Cl  0  0  0  0  0  0  0  0  0  0  0  0
    0.0000   -1.6500    0.0000 Cl  0  0  0  0  0  0  0  0  0  0  0  0
   -1.4289    0.8250    0.0000 Cl  0  0  0  0  0  0  0  0  0  0  0  0
    1.4289    0.8250    0.0000 Cl  0  0  0  0  0  0  0  0  0  0  0  0
    0.0000    0.0000    0.0000 H   0  0  0  0  0  0  0  0  0  0  0  0
    0.0000    0.0000    0.0000 H   0  0  0  0  0  0  0  0  0  0  0  0
    0.0000    0.0000    0.0000 H   0  0  0  0  0  0  0  0  0  0  0  0
    0.0000    0.0000    0.0000 H   0  0  0  0  0  0  0  0  0  0  0  0
    0.0000    0.0000    0.0000 H   0  0  0  0  0  0  0  0  0  0  0  0
    0.0000    0.0000    0.0000 H   0  0  0  0  0  0  0  0  0  0  0  0
  2  1  1  0
  3  2  1  0
  4  1  1  0
  5  3  1  0
  6  4  1  0
  5  6  1  0
  3  7  1  6
  6  8  1  1
  1  9  1  6
  2 10  1  1
  4 11  1  6
  5 12  1  6
  1 13  1  0
  2 14  1  0
  3 15  1  0
  4 16  1  0
  5 17  1  0
  6 18  1  0
M  END
>  <ALOGPS_LOGP>  (1) 
3.94

>  <ALOGPS_LOGS>  (1) 
-4.73

>  <ALOGPS_SOLUBILITY>  (1) 
5.47e-03 g/l

>  <DATABASE_ID>  (1) 
DB00431

>  <DATABASE_NAME>  (1) 
drugbank

>  <DRUGBANK_ID>  (1) 
DB00431

>  <DRUG_GROUPS>  (1) 
approved; withdrawn

>  <EXACT_MASS>  (1) 
287.860066434

>  <FORMULA>  (1) 
C6H6Cl6

>  <GENERIC_NAME>  (1) 
Lindane

>  <INCHI_IDENTIFIER>  (1) 
InChI=1S/C6H6Cl6/c7-1-2(8)4(10)6(12)5(11)3(1)9/h1-6H/t1-,2-,3-,4+,5+,6+

>  <INCHI_KEY>  (1) 
JLYXXMFPNIAWKQ-GNIYUCBRSA-N

>  <INTERNATIONAL_BRANDS>  (1) 
Gamene; Kwell; Scabene

>  <JCHEM_ACCEPTOR_COUNT>  (1) 
0

>  <JCHEM_AVERAGE_POLARIZABILITY>  (1) 
23.083626690760646

>  <JCHEM_BIOAVAILABILITY>  (1) 
1

>  <JCHEM_DONOR_COUNT>  (1) 
0

>  <JCHEM_FORMAL_CHARGE>  (1) 
0

>  <JCHEM_GHOSE_FILTER>  (1) 
0

>  <JCHEM_IUPAC>  (1) 
(1R,2S,3r,4R,5S,6r)-1,2,3,4,5,6-hexachlorocyclohexane

>  <JCHEM_LOGP>  (1) 
4.345541484

>  <JCHEM_MDDR_LIKE_RULE>  (1) 
0

>  <JCHEM_NUMBER_OF_RINGS>  (1) 
1

>  <JCHEM_PHYSIOLOGICAL_CHARGE>  (1) 
0

>  <JCHEM_POLAR_SURFACE_AREA>  (1) 
0

>  <JCHEM_REFRACTIVITY>  (1) 
54.081

>  <JCHEM_ROTATABLE_BOND_COUNT>  (1) 
0

>  <JCHEM_RULE_OF_FIVE>  (1) 
1

>  <JCHEM_TRADITIONAL_IUPAC>  (1) 
β-hexachlorobenzene

>  <JCHEM_VEBER_RULE>  (1) 
1

>  <MOLECULAR_WEIGHT>  (1) 
290.83

>  <PRODUCTS>  (1) 
Dom-lindane Lotion - 1%; Hexit Lotion; Hexit Shampoo 1.0%; Kwellada Lotion 1%; Kwellada Shampoo 1%; Lindane; Lindane Lotion USP 1%; Lindane Shampoo USP 1%; PMS-lindane Lot 1%; PMS-lindane Shp 1%

>  <SECONDARY_ACCESSION_NUMBERS>  (1) 
APRD01072

>  <SMILES>  (1) 
Cl[C@H]1[C@H](Cl)[C@@H](Cl)[C@@H](Cl)[C@H](Cl)[C@H]1Cl

>  <SYNONYMS>  (1) 
gamma-BHC; gamma-HCH; gamma-Hexachlorocyclohexane; Gammallin; Gammaxene; Lindan; γ-hexachlorocyclohexane; γ-Hexachlorzyklohexan; γ-lindane

$$$$
