624
     RDKit          2D

 49 52  0  0  1  0  0  0  0  0999 V2000
    7.1353    1.7429    0.0000 O   0  0  0  0  0  0  0  0  0  0  0  0
    1.6498   -1.8105    0.0000 O   0  0  0  0  0  0  0  0  0  0  0  0
    6.0985   -0.1176    0.0000 C   0  0  0  0  0  0  0  0  0  0  0  0
    6.0985    0.7073    0.0000 C   0  0  0  0  0  0  0  0  0  0  0  0
    5.3842   -0.5300    0.0000 C   0  0  0  0  0  0  0  0  0  0  0  0
    4.6697   -0.1176    0.0000 C   0  0  0  0  0  0  0  0  0  0  0  0
    3.9191   -0.5356    0.0000 C   0  0  0  0  0  0  0  0  0  0  0  0
    5.3842    1.1197    0.0000 C   0  0  0  0  0  0  0  0  0  0  0  0
    4.6697    0.7073    0.0000 C   0  0  0  0  0  0  0  0  0  0  0  0
    6.8790    0.9588    0.0000 C   0  0  0  0  0  0  0  0  0  0  0  0
    6.8790   -0.3689    0.0000 C   0  0  0  0  0  0  0  0  0  0  0  0
    5.3974   -1.3891    0.0000 C   0  0  0  0  0  0  0  0  0  0  0  0
    7.3604    0.2949    0.0000 C   0  0  0  0  0  0  0  0  0  0  0  0
    3.9125   -1.3948    0.0000 C   0  0  0  0  0  0  0  0  0  0  0  0
    4.6566   -1.8245    0.0000 C   0  0  0  0  0  0  0  0  0  0  0  0
    6.0985    1.5322    0.0000 C   0  0  0  0  0  0  0  0  0  0  0  0
    3.1546   -0.0703    0.0000 C   0  0  0  0  0  0  0  0  0  0  0  0
    3.9254    0.2893    0.0000 C   0  0  0  0  0  0  0  0  0  0  0  0
    2.3726   -0.5058    0.0000 C   0  0  0  0  0  0  0  0  0  0  0  0
    3.1409   -1.8482    0.0000 C   0  0  0  0  0  0  0  0  0  0  0  0
    2.3657   -1.4007    0.0000 C   0  0  0  0  0  0  0  0  0  0  0  0
    0.0000    0.0000    0.0000 H   0  0  0  0  0  0  0  0  0  0  0  0
    0.0000    0.0000    0.0000 H   0  0  0  0  0  0  0  0  0  0  0  0
    0.0000    0.0000    0.0000 H   0  0  0  0  0  0  0  0  0  0  0  0
    0.0000    0.0000    0.0000 H   0  0  0  0  0  0  0  0  0  0  0  0
    0.0000    0.0000    0.0000 H   0  0  0  0  0  0  0  0  0  0  0  0
    0.0000    0.0000    0.0000 H   0  0  0  0  0  0  0  0  0  0  0  0
    0.0000    0.0000    0.0000 H   0  0  0  0  0  0  0  0  0  0  0  0
    0.0000    0.0000    0.0000 H   0  0  0  0  0  0  0  0  0  0  0  0
    0.0000    0.0000    0.0000 H   0  0  0  0  0  0  0  0  0  0  0  0
    0.0000    0.0000    0.0000 H   0  0  0  0  0  0  0  0  0  0  0  0
    0.0000    0.0000    0.0000 H   0  0  0  0  0  0  0  0  0  0  0  0
    0.0000    0.0000    0.0000 H   0  0  0  0  0  0  0  0  0  0  0  0
    0.0000    0.0000    0.0000 H   0  0  0  0  0  0  0  0  0  0  0  0
    0.0000    0.0000    0.0000 H   0  0  0  0  0  0  0  0  0  0  0  0
    0.0000    0.0000    0.0000 H   0  0  0  0  0  0  0  0  0  0  0  0
    0.0000    0.0000    0.0000 H   0  0  0  0  0  0  0  0  0  0  0  0
    0.0000    0.0000    0.0000 H   0  0  0  0  0  0  0  0  0  0  0  0
    0.0000    0.0000    0.0000 H   0  0  0  0  0  0  0  0  0  0  0  0
    0.0000    0.0000    0.0000 H   0  0  0  0  0  0  0  0  0  0  0  0
    0.0000    0.0000    0.0000 H   0  0  0  0  0  0  0  0  0  0  0  0
    0.0000    0.0000    0.0000 H   0  0  0  0  0  0  0  0  0  0  0  0
    0.0000    0.0000    0.0000 H   0  0  0  0  0  0  0  0  0  0  0  0
    0.0000    0.0000    0.0000 H   0  0  0  0  0  0  0  0  0  0  0  0
    0.0000    0.0000    0.0000 H   0  0  0  0  0  0  0  0  0  0  0  0
    0.0000    0.0000    0.0000 H   0  0  0  0  0  0  0  0  0  0  0  0
    0.0000    0.0000    0.0000 H   0  0  0  0  0  0  0  0  0  0  0  0
    0.0000    0.0000    0.0000 H   0  0  0  0  0  0  0  0  0  0  0  0
    0.0000    0.0000    0.0000 H   0  0  0  0  0  0  0  0  0  0  0  0
 10  1  1  1
  2 21  2  0
  3  4  1  0
  3  5  1  0
  3 11  1  0
  4  8  1  0
  4 10  1  0
  4 16  1  1
  5  6  1  0
  5 12  1  0
  6  7  1  0
  6  9  1  0
  7 14  1  0
  7 17  1  0
  7 18  1  1
  8  9  1  0
 10 13  1  0
 11 13  1  0
 12 15  1  0
 14 15  1  0
 14 20  2  0
 17 19  1  0
 19 21  1  0
 20 21  1  0
  1 22  1  0
  3 23  1  6
  5 24  1  1
  6 25  1  6
  8 26  1  0
  8 27  1  0
  9 28  1  0
  9 29  1  0
 10 30  1  0
 11 31  1  0
 11 32  1  0
 12 33  1  0
 12 34  1  0
 13 35  1  0
 13 36  1  0
 15 37  1  0
 15 38  1  0
 16 39  1  0
 16 40  1  0
 16 41  1  0
 17 42  1  0
 17 43  1  0
 18 44  1  0
 18 45  1  0
 18 46  1  0
 19 47  1  0
 19 48  1  0
 20 49  1  0
M  END
>  <ALOGPS_LOGP>  (1) 
2.99

>  <ALOGPS_LOGS>  (1) 
-3.94

>  <ALOGPS_SOLUBILITY>  (1) 
3.33e-02 g/l

>  <DATABASE_ID>  (1) 
DB00624

>  <DATABASE_NAME>  (1) 
drugbank

>  <DRUGBANK_ID>  (1) 
DB00624

>  <DRUG_GROUPS>  (1) 
approved; investigational

>  <EXACT_MASS>  (1) 
288.20893014

>  <FORMULA>  (1) 
C19H28O2

>  <GENERIC_NAME>  (1) 
Testosterone

>  <INCHI_IDENTIFIER>  (1) 
InChI=1S/C19H28O2/c1-18-9-7-13(20)11-12(18)3-4-14-15-5-6-17(21)19(15,2)10-8-16(14)18/h11,14-17,21H,3-10H2,1-2H3/t14-,15-,16-,17-,18-,19-/m0/s1

>  <INCHI_KEY>  (1) 
MUMGGOZAMZWBJJ-DYKIIFRCSA-N

>  <INTERNATIONAL_BRANDS>  (1) 
Androderm; Andronate 100; Andronate 200; Andropatch; Andropository 200; Andryl 200; Bio-T-Gel; Intrinsa; Livensa; Nebido; Sustanon; Synandrol F; Testamone 100; Testaqua IM; Testoderm; Testoderm TTS; Testogel; Testolin; Testopatch; Testopel Pellets; Testrin-P.A; Testro AQ; Virormone

>  <JCHEM_ACCEPTOR_COUNT>  (1) 
2

>  <JCHEM_AVERAGE_POLARIZABILITY>  (1) 
34.02027513984652

>  <JCHEM_BIOAVAILABILITY>  (1) 
1

>  <JCHEM_DONOR_COUNT>  (1) 
1

>  <JCHEM_FORMAL_CHARGE>  (1) 
0

>  <JCHEM_GHOSE_FILTER>  (1) 
1

>  <JCHEM_IUPAC>  (1) 
(1S,2R,10R,11S,14S,15S)-14-hydroxy-2,15-dimethyltetracyclo[8.7.0.0²,⁷.0¹¹,¹⁵]heptadec-6-en-5-one

>  <JCHEM_LOGP>  (1) 
3.365423297666668

>  <JCHEM_MDDR_LIKE_RULE>  (1) 
0

>  <JCHEM_NUMBER_OF_RINGS>  (1) 
4

>  <JCHEM_PHYSIOLOGICAL_CHARGE>  (1) 
0

>  <JCHEM_PKA>  (1) 
19.377705208106928

>  <JCHEM_PKA_STRONGEST_ACIDIC>  (1) 
19.08686012168563

>  <JCHEM_PKA_STRONGEST_BASIC>  (1) 
-0.883941123357545

>  <JCHEM_POLAR_SURFACE_AREA>  (1) 
37.3

>  <JCHEM_REFRACTIVITY>  (1) 
84.42979999999999

>  <JCHEM_ROTATABLE_BOND_COUNT>  (1) 
0

>  <JCHEM_RULE_OF_FIVE>  (1) 
1

>  <JCHEM_TRADITIONAL_IUPAC>  (1) 
testosterone

>  <JCHEM_VEBER_RULE>  (1) 
1

>  <MOLECULAR_WEIGHT>  (1) 
288.4244

>  <PRODUCTS>  (1) 
Andriol; Androderm; Androgel; Aveed; Axiron; Climacteron Injection; Delatestryl; Depo-Testosterone; Depo-testosterone Inj 100mg/ml; Fortesta; Intrinsa; Livensa; Malogen Aqueous 100 Sus 100mg/ml; Malogex La200 Liq 200mg/ml; Natesto; Neo Pause Injection; PMS-testosterone; PMS-testosterone Enanthate Inj 200mg/ml USP; Scheinpharm Testone-cyp Inject.- Im 100mg/ml; Striant; Taro-testosterone; Taro-testosterone Gel; Testim; Testim 1%; Testone CIK; Testopel; Testosterone; Testosterone Cypionate; Testosterone Cypionate Injection USP; Testosterone Cypionate Injection, USP; Testosterone Enanthate; Testosterone Enanthate Inj 200mg/ml; Vogelxo

>  <SALTS>  (1) 
Testosterone Cypionate; Testosterone Enanthate; Testosterone Enanthate Benzilic Acid Hydrazone; Testosterone Heptanoate; Testosterone Propionate; Testosterone Undecanoate

>  <SECONDARY_ACCESSION_NUMBERS>  (1) 
APRD00433; DB05720; DB05275

>  <SMILES>  (1) 
[H][C@@]12CC[C@H](O)[C@@]1(C)CC[C@@]1([H])[C@@]2([H])CCC2=CC(=O)CC[C@]12C

>  <SYNONYMS>  (1) 
17beta-hydroxy-4-androsten-3-one; 17beta-Hydroxy-4-androsten-3-one; 4-androsten-17β-ol-3-one; Mertestate; Testosteron; Testosterona; Testostérone; Testosteronum; Virosterone

$$$$
