972
     RDKit          2D

 51 54  0  0  1  0  0  0  0  0999 V2000
    2.0447   -3.0338    0.0000 Cl  0  0  0  0  0  0  0  0  0  0  0  0
    4.9026    1.9162    0.0000 O   0  0  0  0  0  0  0  0  0  0  0  0
    2.1147    2.3521    0.0000 N   0  0  0  0  0  0  0  0  0  0  0  0
    4.1881    0.6787    0.0000 N   0  0  0  0  0  0  0  0  0  0  0  0
    4.1881   -0.1463    0.0000 N   0  0  0  0  0  0  0  0  0  0  0  0
    3.4737    1.0912    0.0000 C   0  0  0  0  0  0  0  0  0  0  0  0
    2.7920    0.6265    0.0000 C   0  0  0  0  0  0  0  0  0  0  0  0
    3.5353    1.9139    0.0000 C   0  0  0  0  0  0  0  0  0  0  0  0
    2.0037    0.8696    0.0000 C   0  0  0  0  0  0  0  0  0  0  0  0
    2.9306    2.4751    0.0000 C   0  0  0  0  0  0  0  0  0  0  0  0
    1.7022    1.6376    0.0000 C   0  0  0  0  0  0  0  0  0  0  0  0
    4.9026    1.0912    0.0000 C   0  0  0  0  0  0  0  0  0  0  0  0
    1.6500    3.0338    0.0000 C   0  0  0  0  0  0  0  0  0  0  0  0
    5.6170    0.6787    0.0000 C   0  0  0  0  0  0  0  0  0  0  0  0
    4.9026   -0.5588    0.0000 C   0  0  0  0  0  0  0  0  0  0  0  0
    5.6170   -0.1463    0.0000 C   0  0  0  0  0  0  0  0  0  0  0  0
    4.9026   -1.3838    0.0000 C   0  0  0  0  0  0  0  0  0  0  0  0
    6.3546    1.1199    0.0000 C   0  0  0  0  0  0  0  0  0  0  0  0
    6.3546   -0.5873    0.0000 C   0  0  0  0  0  0  0  0  0  0  0  0
    4.1881   -1.7963    0.0000 C   0  0  0  0  0  0  0  0  0  0  0  0
    7.1021    0.6959    0.0000 C   0  0  0  0  0  0  0  0  0  0  0  0
    7.1021   -0.1634    0.0000 C   0  0  0  0  0  0  0  0  0  0  0  0
    4.1881   -2.6213    0.0000 C   0  0  0  0  0  0  0  0  0  0  0  0
    3.4737   -1.3838    0.0000 C   0  0  0  0  0  0  0  0  0  0  0  0
    3.4737   -3.0338    0.0000 C   0  0  0  0  0  0  0  0  0  0  0  0
    2.7591   -1.7963    0.0000 C   0  0  0  0  0  0  0  0  0  0  0  0
    2.7591   -2.6213    0.0000 C   0  0  0  0  0  0  0  0  0  0  0  0
    0.0000    0.0000    0.0000 H   0  0  0  0  0  0  0  0  0  0  0  0
    0.0000    0.0000    0.0000 H   0  0  0  0  0  0  0  0  0  0  0  0
    0.0000    0.0000    0.0000 H   0  0  0  0  0  0  0  0  0  0  0  0
    0.0000    0.0000    0.0000 H   0  0  0  0  0  0  0  0  0  0  0  0
    0.0000    0.0000    0.0000 H   0  0  0  0  0  0  0  0  0  0  0  0
    0.0000    0.0000    0.0000 H   0  0  0  0  0  0  0  0  0  0  0  0
    0.0000    0.0000    0.0000 H   0  0  0  0  0  0  0  0  0  0  0  0
    0.0000    0.0000    0.0000 H   0  0  0  0  0  0  0  0  0  0  0  0
    0.0000    0.0000    0.0000 H   0  0  0  0  0  0  0  0  0  0  0  0
    0.0000    0.0000    0.0000 H   0  0  0  0  0  0  0  0  0  0  0  0
    0.0000    0.0000    0.0000 H   0  0  0  0  0  0  0  0  0  0  0  0
    0.0000    0.0000    0.0000 H   0  0  0  0  0  0  0  0  0  0  0  0
    0.0000    0.0000    0.0000 H   0  0  0  0  0  0  0  0  0  0  0  0
    0.0000    0.0000    0.0000 H   0  0  0  0  0  0  0  0  0  0  0  0
    0.0000    0.0000    0.0000 H   0  0  0  0  0  0  0  0  0  0  0  0
    0.0000    0.0000    0.0000 H   0  0  0  0  0  0  0  0  0  0  0  0
    0.0000    0.0000    0.0000 H   0  0  0  0  0  0  0  0  0  0  0  0
    0.0000    0.0000    0.0000 H   0  0  0  0  0  0  0  0  0  0  0  0
    0.0000    0.0000    0.0000 H   0  0  0  0  0  0  0  0  0  0  0  0
    0.0000    0.0000    0.0000 H   0  0  0  0  0  0  0  0  0  0  0  0
    0.0000    0.0000    0.0000 H   0  0  0  0  0  0  0  0  0  0  0  0
    0.0000    0.0000    0.0000 H   0  0  0  0  0  0  0  0  0  0  0  0
    0.0000    0.0000    0.0000 H   0  0  0  0  0  0  0  0  0  0  0  0
    0.0000    0.0000    0.0000 H   0  0  0  0  0  0  0  0  0  0  0  0
  1 27  1  0
  2 12  2  0
  3 10  1  0
  3 11  1  0
  3 13  1  0
  4  5  1  0
  4  6  1  0
  4 12  1  0
  5 15  2  0
  6  7  1  0
  6  8  1  0
  7  9  1  0
  8 10  1  0
  9 11  1  0
 12 14  1  0
 14 16  2  0
 14 18  1  0
 15 16  1  0
 15 17  1  0
 16 19  1  0
 17 20  1  0
 18 21  2  0
 19 22  2  0
 20 23  2  0
 20 24  1  0
 21 22  1  0
 23 25  1  0
 24 26  2  0
 25 27  2  0
 26 27  1  0
  6 28  1  0
  7 29  1  0
  7 30  1  0
  8 31  1  0
  8 32  1  0
  9 33  1  0
  9 34  1  0
 10 35  1  0
 10 36  1  0
 11 37  1  0
 11 38  1  0
 13 39  1  0
 13 40  1  0
 13 41  1  0
 17 42  1  0
 17 43  1  0
 18 44  1  0
 19 45  1  0
 21 46  1  0
 22 47  1  0
 23 48  1  0
 24 49  1  0
 25 50  1  0
 26 51  1  0
M  END
>  <ALOGPS_LOGP>  (1) 
3.81

>  <ALOGPS_LOGS>  (1) 
-4.62

>  <ALOGPS_SOLUBILITY>  (1) 
9.20e-03 g/l

>  <DATABASE_ID>  (1) 
DB00972

>  <DATABASE_NAME>  (1) 
drugbank

>  <DRUGBANK_ID>  (1) 
DB00972

>  <DRUG_GROUPS>  (1) 
approved

>  <EXACT_MASS>  (1) 
381.160790112

>  <FORMULA>  (1) 
C22H24ClN3O

>  <GENERIC_NAME>  (1) 
Azelastine

>  <INCHI_IDENTIFIER>  (1) 
InChI=1S/C22H24ClN3O/c1-25-13-4-5-18(12-14-25)26-22(27)20-7-3-2-6-19(20)21(24-26)15-16-8-10-17(23)11-9-16/h2-3,6-11,18H,4-5,12-15H2,1H3

>  <INCHI_KEY>  (1) 
MBUVEWMHONZEQD-UHFFFAOYSA-N

>  <JCHEM_ACCEPTOR_COUNT>  (1) 
3

>  <JCHEM_AVERAGE_POLARIZABILITY>  (1) 
41.539291345321864

>  <JCHEM_BIOAVAILABILITY>  (1) 
1

>  <JCHEM_DONOR_COUNT>  (1) 
0

>  <JCHEM_FORMAL_CHARGE>  (1) 
0

>  <JCHEM_GHOSE_FILTER>  (1) 
1

>  <JCHEM_IUPAC>  (1) 
4-[(4-chlorophenyl)methyl]-2-(1-methylazepan-4-yl)-1,2-dihydrophthalazin-1-one

>  <JCHEM_LOGP>  (1) 
4.041263461333334

>  <JCHEM_MDDR_LIKE_RULE>  (1) 
0

>  <JCHEM_NUMBER_OF_RINGS>  (1) 
4

>  <JCHEM_PHYSIOLOGICAL_CHARGE>  (1) 
1

>  <JCHEM_PKA_STRONGEST_BASIC>  (1) 
8.876474536708875

>  <JCHEM_POLAR_SURFACE_AREA>  (1) 
35.910000000000004

>  <JCHEM_REFRACTIVITY>  (1) 
110.51540000000003

>  <JCHEM_ROTATABLE_BOND_COUNT>  (1) 
3

>  <JCHEM_RULE_OF_FIVE>  (1) 
1

>  <JCHEM_TRADITIONAL_IUPAC>  (1) 
azelastine

>  <JCHEM_VEBER_RULE>  (1) 
1

>  <MOLECULAR_WEIGHT>  (1) 
381.898

>  <PRODUCTS>  (1) 
Astelin; Astepro; Azelastine; Azelastine HCl Nasal; Azelastine Hydrochloride; Dymista; Optivar; Ticalast

>  <SALTS>  (1) 
Azelastine Hydrochloride

>  <SECONDARY_ACCESSION_NUMBERS>  (1) 
APRD00813

>  <SMILES>  (1) 
CN1CCCC(CC1)N1N=C(CC2=CC=C(Cl)C=C2)C2=CC=CC=C2C1=O

>  <SYNONYMS>  (1) 
Azelastina; Azelastinum

$$$$
