
     RDKit          2D

266273  0  0  0  0  0  0  0  0999 V2000
  -14.9450    0.9816    0.0000 C   0  0  0  0  0  0  0  0  0  0  0  0
  -14.2326   -0.2544    0.0000 O   0  0  0  0  0  0  0  0  0  0  0  0
  -14.2272    0.5680    0.0000 C   0  0  0  0  0  0  0  0  0  0  0  0
  -14.9456    1.8057    0.0000 C   0  0  0  0  0  0  0  0  0  0  0  0
  -14.2344    2.2178    0.0000 C   0  0  0  0  0  0  0  0  0  0  0  0
  -15.6593    2.2194    0.0000 C   0  0  0  0  0  0  0  0  0  0  0  0
  -12.8353    0.6382    0.0000 C   0  0  0  0  0  0  0  0  0  0  0  0
  -12.1310    1.8759    0.0000 O   0  0  0  0  0  0  0  0  0  0  0  0
  -12.1285    1.0502    0.0000 C   0  0  0  0  0  0  0  0  0  0  0  0
  -10.6694    0.9769    0.0000 C   0  0  0  0  0  0  0  0  0  0  0  0
   -9.9477   -0.2610    0.0000 O   0  0  0  0  0  0  0  0  0  0  0  0
   -9.9553    0.5664    0.0000 C   0  0  0  0  0  0  0  0  0  0  0  0
  -10.6718    1.8025    0.0000 C   0  0  0  0  0  0  0  0  0  0  0  0
   -9.9540    2.2147    0.0000 C   0  0  0  0  0  0  0  0  0  0  0  0
   -9.9576    3.0387    0.0000 C   0  0  0  0  0  0  0  0  0  0  0  0
   -9.2423    1.7996    0.0000 C   0  0  0  0  0  0  0  0  0  0  0  0
   -8.5631    0.6380    0.0000 C   0  0  0  0  0  0  0  0  0  0  0  0
   -7.8467    1.8726    0.0000 O   0  0  0  0  0  0  0  0  0  0  0  0
   -8.5607   -0.1865    0.0000 C   0  0  0  0  0  0  0  0  0  0  0  0
   -7.8443    1.0480    0.0000 C   0  0  0  0  0  0  0  0  0  0  0  0
   -6.3825    0.9802    0.0000 C   0  0  0  0  0  0  0  0  0  0  0  0
   -5.6676   -0.2511    0.0000 O   0  0  0  0  0  0  0  0  0  0  0  0
   -5.6700    0.5734    0.0000 C   0  0  0  0  0  0  0  0  0  0  0  0
   -6.3849    1.8048    0.0000 C   0  0  0  0  0  0  0  0  0  0  0  0
   -5.6687    2.2209    0.0000 C   0  0  0  0  0  0  0  0  0  0  0  0
   -7.1001    2.2179    0.0000 C   0  0  0  0  0  0  0  0  0  0  0  0
   -4.2855    0.6441    0.0000 C   0  0  0  0  0  0  0  0  0  0  0  0
   -3.5735    1.8864    0.0000 O   0  0  0  0  0  0  0  0  0  0  0  0
   -3.5727    1.0556    0.0000 C   0  0  0  0  0  0  0  0  0  0  0  0
   -4.2892   -0.1788    0.0000 C   0  0  0  0  0  0  0  0  0  0  0  0
   -3.5680   -0.5934    0.0000 C   0  0  0  0  0  0  0  0  0  0  0  0
   -5.0019   -0.5904    0.0000 C   0  0  0  0  0  0  0  0  0  0  0  0
   -2.1101    0.9871    0.0000 C   0  0  0  0  0  0  0  0  0  0  0  0
   -1.3969   -0.2503    0.0000 O   0  0  0  0  0  0  0  0  0  0  0  0
   -1.3993    0.5743    0.0000 C   0  0  0  0  0  0  0  0  0  0  0  0
   -2.1106    1.8100    0.0000 C   0  0  0  0  0  0  0  0  0  0  0  0
   -1.3964    2.2235    0.0000 C   0  0  0  0  0  0  0  0  0  0  0  0
   -2.8276    2.2246    0.0000 C   0  0  0  0  0  0  0  0  0  0  0  0
   -0.0102    0.6528    0.0000 C   0  0  0  0  0  0  0  0  0  0  0  0
    0.7229    1.8480    0.0000 O   0  0  0  0  0  0  0  0  0  0  0  0
    0.7253    1.0234    0.0000 C   0  0  0  0  0  0  0  0  0  0  0  0
   -0.0539   -0.1711    0.0000 C   0  0  0  0  0  0  0  0  0  0  0  0
    1.4097   -0.3266    0.0000 C   0  0  0  0  0  0  0  0  0  0  0  0
    0.6424   -0.6245    0.0000 C   0  0  0  0  0  0  0  0  0  0  0  0
    0.6805   -1.4428    0.0000 C   0  0  0  0  0  0  0  0  0  0  0  0
    1.4816   -1.6578    0.0000 C   0  0  0  0  0  0  0  0  0  0  0  0
    1.6944   -2.4564    0.0000 C   0  0  0  0  0  0  0  0  0  0  0  0
    1.1094   -3.0399    0.0000 C   0  0  0  0  0  0  0  0  0  0  0  0
    0.3123   -2.8249    0.0000 C   0  0  0  0  0  0  0  0  0  0  0  0
    0.0979   -2.0323    0.0000 C   0  0  0  0  0  0  0  0  0  0  0  0
    2.1830    0.9576    0.0000 C   0  0  0  0  0  0  0  0  0  0  0  0
    2.9006   -0.2799    0.0000 O   0  0  0  0  0  0  0  0  0  0  0  0
    2.8982    0.5447    0.0000 C   0  0  0  0  0  0  0  0  0  0  0  0
    2.1848    1.7822    0.0000 C   0  0  0  0  0  0  0  0  0  0  0  0
    2.8995    2.1921    0.0000 C   0  0  0  0  0  0  0  0  0  0  0  0
    2.8971    3.0167    0.0000 C   0  0  0  0  0  0  0  0  0  0  0  0
    3.6145    1.7792    0.0000 C   0  0  0  0  0  0  0  0  0  0  0  0
    4.2858    0.6242    0.0000 C   0  0  0  0  0  0  0  0  0  0  0  0
    4.9961    1.8604    0.0000 O   0  0  0  0  0  0  0  0  0  0  0  0
    4.9985    1.0359    0.0000 C   0  0  0  0  0  0  0  0  0  0  0  0
    4.2846   -0.2045    0.0000 C   0  0  0  0  0  0  0  0  0  0  0  0
    5.7554   -0.2800    0.0000 C   0  0  0  0  0  0  0  0  0  0  0  0
    4.9972   -0.6115    0.0000 C   0  0  0  0  0  0  0  0  0  0  0  0
    5.0838   -1.4378    0.0000 C   0  0  0  0  0  0  0  0  0  0  0  0
    5.8915   -1.6078    0.0000 C   0  0  0  0  0  0  0  0  0  0  0  0
    6.1505   -2.3924    0.0000 C   0  0  0  0  0  0  0  0  0  0  0  0
    5.5976   -3.0069    0.0000 C   0  0  0  0  0  0  0  0  0  0  0  0
    4.7898   -2.8370    0.0000 C   0  0  0  0  0  0  0  0  0  0  0  0
    4.5365   -2.0463    0.0000 C   0  0  0  0  0  0  0  0  0  0  0  0
    6.4624    0.9636    0.0000 C   0  0  0  0  0  0  0  0  0  0  0  0
    7.1755   -0.2701    0.0000 O   0  0  0  0  0  0  0  0  0  0  0  0
    7.1792    0.5526    0.0000 C   0  0  0  0  0  0  0  0  0  0  0  0
    6.4601    1.7883    0.0000 C   0  0  0  0  0  0  0  0  0  0  0  0
    7.1744    2.2017    0.0000 C   0  0  0  0  0  0  0  0  0  0  0  0
    7.1721    3.0263    0.0000 C   0  0  0  0  0  0  0  0  0  0  0  0
    7.8895    1.7930    0.0000 C   0  0  0  0  0  0  0  0  0  0  0  0
    8.5618    0.6354    0.0000 C   0  0  0  0  0  0  0  0  0  0  0  0
    9.2679    1.8717    0.0000 O   0  0  0  0  0  0  0  0  0  0  0  0
    9.2702    1.0471    0.0000 C   0  0  0  0  0  0  0  0  0  0  0  0
    8.5600   -0.1889    0.0000 C   0  0  0  0  0  0  0  0  0  0  0  0
   10.0287   -0.2626    0.0000 C   0  0  0  0  0  0  0  0  0  0  0  0
    9.2750   -0.6018    0.0000 C   0  0  0  0  0  0  0  0  0  0  0  0
    9.3632   -1.4221    0.0000 C   0  0  0  0  0  0  0  0  0  0  0  0
   10.1691   -1.5906    0.0000 C   0  0  0  0  0  0  0  0  0  0  0  0
   10.4240   -2.3752    0.0000 C   0  0  0  0  0  0  0  0  0  0  0  0
    9.8710   -2.9896    0.0000 C   0  0  0  0  0  0  0  0  0  0  0  0
    9.0693   -2.8212    0.0000 C   0  0  0  0  0  0  0  0  0  0  0  0
    8.8103   -2.0366    0.0000 C   0  0  0  0  0  0  0  0  0  0  0  0
   10.7303    0.9748    0.0000 C   0  0  0  0  0  0  0  0  0  0  0  0
   11.4478   -0.2625    0.0000 O   0  0  0  0  0  0  0  0  0  0  0  0
   11.4454    0.5618    0.0000 C   0  0  0  0  0  0  0  0  0  0  0  0
   10.7279    1.7993    0.0000 C   0  0  0  0  0  0  0  0  0  0  0  0
   11.4423    2.2171    0.0000 C   0  0  0  0  0  0  0  0  0  0  0  0
   11.4460    3.0399    0.0000 C   0  0  0  0  0  0  0  0  0  0  0  0
   12.1635    1.8024    0.0000 C   0  0  0  0  0  0  0  0  0  0  0  0
   12.8272    0.6393    0.0000 C   0  0  0  0  0  0  0  0  0  0  0  0
   13.5437    1.8738    0.0000 O   0  0  0  0  0  0  0  0  0  0  0  0
   13.5461    1.0492    0.0000 C   0  0  0  0  0  0  0  0  0  0  0  0
   12.8296   -0.1853    0.0000 C   0  0  0  0  0  0  0  0  0  0  0  0
   13.5448   -0.5982    0.0000 C   0  0  0  0  0  0  0  0  0  0  0  0
   13.6314   -1.4203    0.0000 C   0  0  0  0  0  0  0  0  0  0  0  0
   14.4391   -1.5904    0.0000 C   0  0  0  0  0  0  0  0  0  0  0  0
   14.6981   -2.3750    0.0000 C   0  0  0  0  0  0  0  0  0  0  0  0
   14.1467   -2.9875    0.0000 C   0  0  0  0  0  0  0  0  0  0  0  0
   13.3391   -2.8174    0.0000 C   0  0  0  0  0  0  0  0  0  0  0  0
   13.0801   -2.0329    0.0000 C   0  0  0  0  0  0  0  0  0  0  0  0
  -16.4012    1.0443    0.0000 C   0  0  0  0  0  0  0  0  0  0  0  0
  -16.4025    1.8688    0.0000 O   0  0  0  0  0  0  0  0  0  0  0  0
   14.2598    0.6361    0.0000 N   0  0  0  0  0  0  0  0  0  0  0  0
   14.2588   -0.1884    0.0000 C   0  0  0  0  0  0  0  0  0  0  0  0
   14.9743    1.0475    0.0000 C   0  0  0  0  0  0  0  0  0  0  0  0
   15.6879    0.6344    0.0000 C   0  0  0  0  0  0  0  0  0  0  0  0
   16.4025    1.0458    0.0000 O   0  0  0  0  0  0  0  0  0  0  0  0
  -15.6897    0.6267    0.0000 N   0  0  0  0  0  0  0  0  0  0  0  0
  -13.5535    1.0442    0.0000 N   0  0  0  0  0  0  0  0  0  0  0  0
  -11.4182    0.6305    0.0000 N   0  0  0  0  0  0  0  0  0  0  0  0
   -9.2819    1.0431    0.0000 N   0  0  0  0  0  0  0  0  0  0  0  0
   -7.1311    0.6334    0.0000 N   0  0  0  0  0  0  0  0  0  0  0  0
   -5.0005    1.0555    0.0000 N   0  0  0  0  0  0  0  0  0  0  0  0
   -2.8592    0.6415    0.0000 N   0  0  0  0  0  0  0  0  0  0  0  0
   -0.7298    1.0564    0.0000 N   0  0  0  0  0  0  0  0  0  0  0  0
    1.9311   -0.9660    0.0000 N   0  0  0  0  0  0  0  0  0  0  0  0
    1.4367    0.6058    0.0000 N   0  0  0  0  0  0  0  0  0  0  0  0
    3.5664    1.0282    0.0000 N   0  0  0  0  0  0  0  0  0  0  0  0
    6.3059   -0.8944    0.0000 N   0  0  0  0  0  0  0  0  0  0  0  0
    5.7118    0.6214    0.0000 N   0  0  0  0  0  0  0  0  0  0  0  0
    7.8436    1.0417    0.0000 N   0  0  0  0  0  0  0  0  0  0  0  0
   10.5808   -0.8757    0.0000 N   0  0  0  0  0  0  0  0  0  0  0  0
    9.9813    0.6288    0.0000 N   0  0  0  0  0  0  0  0  0  0  0  0
   12.1112    1.0489    0.0000 N   0  0  0  0  0  0  0  0  0  0  0  0
   14.7709   -0.8351    0.0000 N   0  0  0  0  0  0  0  0  0  0  0  0
    0.0000    0.0000    0.0000 H   0  0  0  0  0  0  0  0  0  0  0  0
    0.0000    0.0000    0.0000 H   0  0  0  0  0  0  0  0  0  0  0  0
    0.0000    0.0000    0.0000 H   0  0  0  0  0  0  0  0  0  0  0  0
    0.0000    0.0000    0.0000 H   0  0  0  0  0  0  0  0  0  0  0  0
    0.0000    0.0000    0.0000 H   0  0  0  0  0  0  0  0  0  0  0  0
    0.0000    0.0000    0.0000 H   0  0  0  0  0  0  0  0  0  0  0  0
    0.0000    0.0000    0.0000 H   0  0  0  0  0  0  0  0  0  0  0  0
    0.0000    0.0000    0.0000 H   0  0  0  0  0  0  0  0  0  0  0  0
    0.0000    0.0000    0.0000 H   0  0  0  0  0  0  0  0  0  0  0  0
    0.0000    0.0000    0.0000 H   0  0  0  0  0  0  0  0  0  0  0  0
    0.0000    0.0000    0.0000 H   0  0  0  0  0  0  0  0  0  0  0  0
    0.0000    0.0000    0.0000 H   0  0  0  0  0  0  0  0  0  0  0  0
    0.0000    0.0000    0.0000 H   0  0  0  0  0  0  0  0  0  0  0  0
    0.0000    0.0000    0.0000 H   0  0  0  0  0  0  0  0  0  0  0  0
    0.0000    0.0000    0.0000 H   0  0  0  0  0  0  0  0  0  0  0  0
    0.0000    0.0000    0.0000 H   0  0  0  0  0  0  0  0  0  0  0  0
    0.0000    0.0000    0.0000 H   0  0  0  0  0  0  0  0  0  0  0  0
    0.0000    0.0000    0.0000 H   0  0  0  0  0  0  0  0  0  0  0  0
    0.0000    0.0000    0.0000 H   0  0  0  0  0  0  0  0  0  0  0  0
    0.0000    0.0000    0.0000 H   0  0  0  0  0  0  0  0  0  0  0  0
    0.0000    0.0000    0.0000 H   0  0  0  0  0  0  0  0  0  0  0  0
    0.0000    0.0000    0.0000 H   0  0  0  0  0  0  0  0  0  0  0  0
    0.0000    0.0000    0.0000 H   0  0  0  0  0  0  0  0  0  0  0  0
    0.0000    0.0000    0.0000 H   0  0  0  0  0  0  0  0  0  0  0  0
    0.0000    0.0000    0.0000 H   0  0  0  0  0  0  0  0  0  0  0  0
    0.0000    0.0000    0.0000 H   0  0  0  0  0  0  0  0  0  0  0  0
    0.0000    0.0000    0.0000 H   0  0  0  0  0  0  0  0  0  0  0  0
    0.0000    0.0000    0.0000 H   0  0  0  0  0  0  0  0  0  0  0  0
    0.0000    0.0000    0.0000 H   0  0  0  0  0  0  0  0  0  0  0  0
    0.0000    0.0000    0.0000 H   0  0  0  0  0  0  0  0  0  0  0  0
    0.0000    0.0000    0.0000 H   0  0  0  0  0  0  0  0  0  0  0  0
    0.0000    0.0000    0.0000 H   0  0  0  0  0  0  0  0  0  0  0  0
    0.0000    0.0000    0.0000 H   0  0  0  0  0  0  0  0  0  0  0  0
    0.0000    0.0000    0.0000 H   0  0  0  0  0  0  0  0  0  0  0  0
    0.0000    0.0000    0.0000 H   0  0  0  0  0  0  0  0  0  0  0  0
    0.0000    0.0000    0.0000 H   0  0  0  0  0  0  0  0  0  0  0  0
    0.0000    0.0000    0.0000 H   0  0  0  0  0  0  0  0  0  0  0  0
    0.0000    0.0000    0.0000 H   0  0  0  0  0  0  0  0  0  0  0  0
    0.0000    0.0000    0.0000 H   0  0  0  0  0  0  0  0  0  0  0  0
    0.0000    0.0000    0.0000 H   0  0  0  0  0  0  0  0  0  0  0  0
    0.0000    0.0000    0.0000 H   0  0  0  0  0  0  0  0  0  0  0  0
    0.0000    0.0000    0.0000 H   0  0  0  0  0  0  0  0  0  0  0  0
    0.0000    0.0000    0.0000 H   0  0  0  0  0  0  0  0  0  0  0  0
    0.0000    0.0000    0.0000 H   0  0  0  0  0  0  0  0  0  0  0  0
    0.0000    0.0000    0.0000 H   0  0  0  0  0  0  0  0  0  0  0  0
    0.0000    0.0000    0.0000 H   0  0  0  0  0  0  0  0  0  0  0  0
    0.0000    0.0000    0.0000 H   0  0  0  0  0  0  0  0  0  0  0  0
    0.0000    0.0000    0.0000 H   0  0  0  0  0  0  0  0  0  0  0  0
    0.0000    0.0000    0.0000 H   0  0  0  0  0  0  0  0  0  0  0  0
    0.0000    0.0000    0.0000 H   0  0  0  0  0  0  0  0  0  0  0  0
    0.0000    0.0000    0.0000 H   0  0  0  0  0  0  0  0  0  0  0  0
    0.0000    0.0000    0.0000 H   0  0  0  0  0  0  0  0  0  0  0  0
    0.0000    0.0000    0.0000 H   0  0  0  0  0  0  0  0  0  0  0  0
    0.0000    0.0000    0.0000 H   0  0  0  0  0  0  0  0  0  0  0  0
    0.0000    0.0000    0.0000 H   0  0  0  0  0  0  0  0  0  0  0  0
    0.0000    0.0000    0.0000 H   0  0  0  0  0  0  0  0  0  0  0  0
    0.0000    0.0000    0.0000 H   0  0  0  0  0  0  0  0  0  0  0  0
    0.0000    0.0000    0.0000 H   0  0  0  0  0  0  0  0  0  0  0  0
    0.0000    0.0000    0.0000 H   0  0  0  0  0  0  0  0  0  0  0  0
    0.0000    0.0000    0.0000 H   0  0  0  0  0  0  0  0  0  0  0  0
    0.0000    0.0000    0.0000 H   0  0  0  0  0  0  0  0  0  0  0  0
    0.0000    0.0000    0.0000 H   0  0  0  0  0  0  0  0  0  0  0  0
    0.0000    0.0000    0.0000 H   0  0  0  0  0  0  0  0  0  0  0  0
    0.0000    0.0000    0.0000 H   0  0  0  0  0  0  0  0  0  0  0  0
    0.0000    0.0000    0.0000 H   0  0  0  0  0  0  0  0  0  0  0  0
    0.0000    0.0000    0.0000 H   0  0  0  0  0  0  0  0  0  0  0  0
    0.0000    0.0000    0.0000 H   0  0  0  0  0  0  0  0  0  0  0  0
    0.0000    0.0000    0.0000 H   0  0  0  0  0  0  0  0  0  0  0  0
    0.0000    0.0000    0.0000 H   0  0  0  0  0  0  0  0  0  0  0  0
    0.0000    0.0000    0.0000 H   0  0  0  0  0  0  0  0  0  0  0  0
    0.0000    0.0000    0.0000 H   0  0  0  0  0  0  0  0  0  0  0  0
    0.0000    0.0000    0.0000 H   0  0  0  0  0  0  0  0  0  0  0  0
    0.0000    0.0000    0.0000 H   0  0  0  0  0  0  0  0  0  0  0  0
    0.0000    0.0000    0.0000 H   0  0  0  0  0  0  0  0  0  0  0  0
    0.0000    0.0000    0.0000 H   0  0  0  0  0  0  0  0  0  0  0  0
    0.0000    0.0000    0.0000 H   0  0  0  0  0  0  0  0  0  0  0  0
    0.0000    0.0000    0.0000 H   0  0  0  0  0  0  0  0  0  0  0  0
    0.0000    0.0000    0.0000 H   0  0  0  0  0  0  0  0  0  0  0  0
    0.0000    0.0000    0.0000 H   0  0  0  0  0  0  0  0  0  0  0  0
    0.0000    0.0000    0.0000 H   0  0  0  0  0  0  0  0  0  0  0  0
    0.0000    0.0000    0.0000 H   0  0  0  0  0  0  0  0  0  0  0  0
    0.0000    0.0000    0.0000 H   0  0  0  0  0  0  0  0  0  0  0  0
    0.0000    0.0000    0.0000 H   0  0  0  0  0  0  0  0  0  0  0  0
    0.0000    0.0000    0.0000 H   0  0  0  0  0  0  0  0  0  0  0  0
    0.0000    0.0000    0.0000 H   0  0  0  0  0  0  0  0  0  0  0  0
    0.0000    0.0000    0.0000 H   0  0  0  0  0  0  0  0  0  0  0  0
    0.0000    0.0000    0.0000 H   0  0  0  0  0  0  0  0  0  0  0  0
    0.0000    0.0000    0.0000 H   0  0  0  0  0  0  0  0  0  0  0  0
    0.0000    0.0000    0.0000 H   0  0  0  0  0  0  0  0  0  0  0  0
    0.0000    0.0000    0.0000 H   0  0  0  0  0  0  0  0  0  0  0  0
    0.0000    0.0000    0.0000 H   0  0  0  0  0  0  0  0  0  0  0  0
    0.0000    0.0000    0.0000 H   0  0  0  0  0  0  0  0  0  0  0  0
    0.0000    0.0000    0.0000 H   0  0  0  0  0  0  0  0  0  0  0  0
    0.0000    0.0000    0.0000 H   0  0  0  0  0  0  0  0  0  0  0  0
    0.0000    0.0000    0.0000 H   0  0  0  0  0  0  0  0  0  0  0  0
    0.0000    0.0000    0.0000 H   0  0  0  0  0  0  0  0  0  0  0  0
    0.0000    0.0000    0.0000 H   0  0  0  0  0  0  0  0  0  0  0  0
    0.0000    0.0000    0.0000 H   0  0  0  0  0  0  0  0  0  0  0  0
    0.0000    0.0000    0.0000 H   0  0  0  0  0  0  0  0  0  0  0  0
    0.0000    0.0000    0.0000 H   0  0  0  0  0  0  0  0  0  0  0  0
    0.0000    0.0000    0.0000 H   0  0  0  0  0  0  0  0  0  0  0  0
    0.0000    0.0000    0.0000 H   0  0  0  0  0  0  0  0  0  0  0  0
    0.0000    0.0000    0.0000 H   0  0  0  0  0  0  0  0  0  0  0  0
    0.0000    0.0000    0.0000 H   0  0  0  0  0  0  0  0  0  0  0  0
    0.0000    0.0000    0.0000 H   0  0  0  0  0  0  0  0  0  0  0  0
    0.0000    0.0000    0.0000 H   0  0  0  0  0  0  0  0  0  0  0  0
    0.0000    0.0000    0.0000 H   0  0  0  0  0  0  0  0  0  0  0  0
    0.0000    0.0000    0.0000 H   0  0  0  0  0  0  0  0  0  0  0  0
    0.0000    0.0000    0.0000 H   0  0  0  0  0  0  0  0  0  0  0  0
    0.0000    0.0000    0.0000 H   0  0  0  0  0  0  0  0  0  0  0  0
    0.0000    0.0000    0.0000 H   0  0  0  0  0  0  0  0  0  0  0  0
    0.0000    0.0000    0.0000 H   0  0  0  0  0  0  0  0  0  0  0  0
    0.0000    0.0000    0.0000 H   0  0  0  0  0  0  0  0  0  0  0  0
    0.0000    0.0000    0.0000 H   0  0  0  0  0  0  0  0  0  0  0  0
    0.0000    0.0000    0.0000 H   0  0  0  0  0  0  0  0  0  0  0  0
    0.0000    0.0000    0.0000 H   0  0  0  0  0  0  0  0  0  0  0  0
    0.0000    0.0000    0.0000 H   0  0  0  0  0  0  0  0  0  0  0  0
    0.0000    0.0000    0.0000 H   0  0  0  0  0  0  0  0  0  0  0  0
    0.0000    0.0000    0.0000 H   0  0  0  0  0  0  0  0  0  0  0  0
    0.0000    0.0000    0.0000 H   0  0  0  0  0  0  0  0  0  0  0  0
    0.0000    0.0000    0.0000 H   0  0  0  0  0  0  0  0  0  0  0  0
    0.0000    0.0000    0.0000 H   0  0  0  0  0  0  0  0  0  0  0  0
    0.0000    0.0000    0.0000 H   0  0  0  0  0  0  0  0  0  0  0  0
    0.0000    0.0000    0.0000 H   0  0  0  0  0  0  0  0  0  0  0  0
    0.0000    0.0000    0.0000 H   0  0  0  0  0  0  0  0  0  0  0  0
    0.0000    0.0000    0.0000 H   0  0  0  0  0  0  0  0  0  0  0  0
    0.0000    0.0000    0.0000 H   0  0  0  0  0  0  0  0  0  0  0  0
    0.0000    0.0000    0.0000 H   0  0  0  0  0  0  0  0  0  0  0  0
    0.0000    0.0000    0.0000 H   0  0  0  0  0  0  0  0  0  0  0  0
    0.0000    0.0000    0.0000 H   0  0  0  0  0  0  0  0  0  0  0  0
    0.0000    0.0000    0.0000 H   0  0  0  0  0  0  0  0  0  0  0  0
    0.0000    0.0000    0.0000 H   0  0  0  0  0  0  0  0  0  0  0  0
    0.0000    0.0000    0.0000 H   0  0  0  0  0  0  0  0  0  0  0  0
    0.0000    0.0000    0.0000 H   0  0  0  0  0  0  0  0  0  0  0  0
    0.0000    0.0000    0.0000 H   0  0  0  0  0  0  0  0  0  0  0  0
 12 11  2  0
 10 13  1  6
 13 14  1  0
 14 15  1  0
 14 16  1  0
 17 20  1  6
 20 18  2  0
 17 19  1  0
 21 23  1  6
 23 22  2  0
 21 24  1  0
 24 25  1  0
 24 26  1  0
 27 29  1  6
 29 28  2  0
 27 30  1  0
 30 31  1  0
 30 32  1  0
 33 35  1  6
 35 34  2  0
 33 36  1  0
 36 37  1  0
 36 38  1  0
 39 41  1  6
 41 40  2  0
 39 42  1  0
 42 44  1  0
 43 44  2  0
 44 45  1  0
 45 46  2  0
 46 47  1  0
 47 48  2  0
 48 49  1  0
 49 50  2  0
 50 45  1  0
 51 53  1  1
 53 52  2  0
 51 54  1  0
 54 55  1  0
 55 56  1  0
 55 57  1  0
 58 60  1  1
 60 59  2  0
 58 61  1  0
 61 63  1  0
 62 63  2  0
 63 64  1  0
 64 65  2  0
 65 66  1  0
 66 67  2  0
 67 68  1  0
 68 69  2  0
 69 64  1  0
 70 72  1  1
 72 71  2  0
 70 73  1  0
 73 74  1  0
 74 75  1  0
 74 76  1  0
 77 79  1  1
 79 78  2  0
 77 80  1  0
 80 82  1  0
 81 82  2  0
 82 83  1  0
 83 84  2  0
 84 85  1  0
 85 86  2  0
 86 87  1  0
 87 88  2  0
 88 83  1  0
 89 91  1  1
 91 90  2  0
 89 92  1  0
 92 93  1  0
 93 94  1  0
 93 95  1  0
 96 98  1  1
 98 97  2  0
 96 99  1  0
 99100  1  0
110100  2  0
100101  1  0
101102  1  0
102103  2  0
103104  1  0
104105  2  0
105106  1  0
106101  2  0
107108  2  0
 98109  1  0
109111  1  0
111112  1  0
112113  1  0
  1  3  1  1
  3  2  2  0
  1  4  1  0
  4  5  1  0
  4  6  1  0
  7  9  1  0
  9  8  2  0
 10 12  1  0
122 43  1  0
 46122  1  0
  3115  1  0
115  7  1  0
123 51  1  0
 41123  1  0
118 21  1  0
 20118  1  0
124 58  1  0
 53124  1  0
114107  1  0
114  1  1  0
125 62  1  0
 65125  1  0
119 27  1  0
 23119  1  0
126 70  1  0
 60126  1  0
  9116  1  0
116 10  1  0
127 77  1  0
 72127  1  0
120 33  1  0
 29120  1  0
128 81  1  0
 84128  1  0
129 89  1  0
 79129  1  0
121 39  1  0
 35121  1  0
130 96  1  0
 91130  1  0
117 17  1  0
 12117  1  0
131110  1  0
102131  1  0
  1132  1  0
  4133  1  0
  5134  1  0
  5135  1  0
  5136  1  0
  6137  1  0
  6138  1  0
  6139  1  0
  7140  1  0
  7141  1  0
 10142  1  0
 13143  1  0
 13144  1  0
 14145  1  0
 15146  1  0
 15147  1  0
 15148  1  0
 16149  1  0
 16150  1  0
 16151  1  0
 17152  1  0
 19153  1  0
 19154  1  0
 19155  1  0
 21156  1  0
 24157  1  0
 25158  1  0
 25159  1  0
 25160  1  0
 26161  1  0
 26162  1  0
 26163  1  0
 27164  1  0
 30165  1  0
 31166  1  0
 31167  1  0
 31168  1  0
 32169  1  0
 32170  1  0
 32171  1  0
 33172  1  0
 36173  1  0
 37174  1  0
 37175  1  0
 37176  1  0
 38177  1  0
 38178  1  0
 38179  1  0
 39180  1  0
 42181  1  0
 42182  1  0
 43183  1  0
 47184  1  0
 48185  1  0
 49186  1  0
 50187  1  0
 51188  1  0
 54189  1  0
 54190  1  0
 55191  1  0
 56192  1  0
 56193  1  0
 56194  1  0
 57195  1  0
 57196  1  0
 57197  1  0
 58198  1  0
 61199  1  0
 61200  1  0
 62201  1  0
 66202  1  0
 67203  1  0
 68204  1  0
 69205  1  0
 70206  1  0
 73207  1  0
 73208  1  0
 74209  1  0
 75210  1  0
 75211  1  0
 75212  1  0
 76213  1  0
 76214  1  0
 76215  1  0
 77216  1  0
 80217  1  0
 80218  1  0
 81219  1  0
 85220  1  0
 86221  1  0
 87222  1  0
 88223  1  0
 89224  1  0
 92225  1  0
 92226  1  0
 93227  1  0
 94228  1  0
 94229  1  0
 94230  1  0
 95231  1  0
 95232  1  0
 95233  1  0
 96234  1  0
 99235  1  0
 99236  1  0
103237  1  0
104238  1  0
105239  1  0
106240  1  0
107241  1  0
109242  1  0
110243  1  0
111244  1  0
111245  1  0
112246  1  0
112247  1  0
113248  1  0
114249  1  0
115250  1  0
116251  1  0
117252  1  0
118253  1  0
119254  1  0
120255  1  0
121256  1  0
122257  1  0
123258  1  0
124259  1  0
125260  1  0
126261  1  0
127262  1  0
128263  1  0
129264  1  0
130265  1  0
131266  1  0
M  END
>  <ALOGPS_LOGP>  (1) 
4.38

>  <ALOGPS_LOGS>  (1) 
-5.67

>  <ALOGPS_SOLUBILITY>  (1) 
3.90e-03 g/l

>  <DATABASE_ID>  (1) 
DB00027

>  <DATABASE_NAME>  (1) 
drugbank

>  <DRUGBANK_ID>  (1) 
DB00027

>  <DRUG_GROUPS>  (1) 
approved

>  <EXACT_MASS>  (1) 
1810.033419343

>  <FORMULA>  (1) 
C96H135N19O16

>  <GENERIC_NAME>  (1) 
Gramicidin D

>  <INCHI_IDENTIFIER>  (1) 
InChI=1S/C96H135N19O16/c1-50(2)36-71(105-79(118)48-102-93(128)80(54(9)10)103-49-117)86(121)104-58(17)84(119)113-82(56(13)14)95(130)115-83(57(15)16)96(131)114-81(55(11)12)94(129)112-78(43-62-47-101-70-33-25-21-29-66(62)70)92(127)108-74(39-53(7)8)89(124)111-77(42-61-46-100-69-32-24-20-28-65(61)69)91(126)107-73(38-52(5)6)88(123)110-76(41-60-45-99-68-31-23-19-27-64(60)68)90(125)106-72(37-51(3)4)87(122)109-75(85(120)97-34-35-116)40-59-44-98-67-30-22-18-26-63(59)67/h18-33,44-47,49-58,71-78,80-83,98-101,116H,34-43,48H2,1-17H3,(H,97,120)(H,102,128)(H,103,117)(H,104,121)(H,105,118)(H,106,125)(H,107,126)(H,108,127)(H,109,122)(H,110,123)(H,111,124)(H,112,129)(H,113,119)(H,114,131)(H,115,130)/t58-,71+,72+,73+,74+,75-,76-,77-,78-,80-,81+,82+,83-/m0/s1

>  <INCHI_KEY>  (1) 
NDAYQJDHGXTBJL-MWWSRJDJSA-N

>  <INTERNATIONAL_BRANDS>  (1) 
Sofradex

>  <JCHEM_ACCEPTOR_COUNT>  (1) 
16

>  <JCHEM_ATOM_COUNT>  (1) 
266

>  <JCHEM_AVERAGE_POLARIZABILITY>  (1) 
194.73112146160696

>  <JCHEM_BIOAVAILABILITY>  (1) 
0

>  <JCHEM_DONOR_COUNT>  (1) 
20

>  <JCHEM_FORMAL_CHARGE>  (1) 
0

>  <JCHEM_GHOSE_FILTER>  (1) 
0

>  <JCHEM_IUPAC>  (1) 
(2R)-N-[(1S)-1-{[(1R)-1-{[(1S)-1-{[(1R)-1-{[(1S)-1-{[(1R)-1-{[(1S)-1-{[(1R)-1-{[(1S)-1-{[(1R)-1-{[(1S)-1-[(2-hydroxyethyl)carbamoyl]-2-(1H-indol-3-yl)ethyl]carbamoyl}-3-methylbutyl]carbamoyl}-2-(1H-indol-3-yl)ethyl]carbamoyl}-3-methylbutyl]carbamoyl}-2-(1H-indol-3-yl)ethyl]carbamoyl}-3-methylbutyl]carbamoyl}-2-(1H-indol-3-yl)ethyl]carbamoyl}-2-methylpropyl]carbamoyl}-2-methylpropyl]carbamoyl}-2-methylpropyl]carbamoyl}ethyl]-2-{2-[(2S)-2-formamido-3-methylbutanamido]acetamido}-4-methylpentanamide

>  <JCHEM_LOGP>  (1) 
5.961331766000006

>  <JCHEM_MDDR_LIKE_RULE>  (1) 
1

>  <JCHEM_NUMBER_OF_RINGS>  (1) 
8

>  <JCHEM_PHYSIOLOGICAL_CHARGE>  (1) 
0

>  <JCHEM_PKA>  (1) 
11.945820150825762

>  <JCHEM_PKA_STRONGEST_ACIDIC>  (1) 
11.560887729305339

>  <JCHEM_POLAR_SURFACE_AREA>  (1) 
519.8899999999996

>  <JCHEM_REFRACTIVITY>  (1) 
492.3329000000001

>  <JCHEM_ROTATABLE_BOND_COUNT>  (1) 
50

>  <JCHEM_RULE_OF_FIVE>  (1) 
0

>  <JCHEM_TRADITIONAL_IUPAC>  (1) 
(2R)-N-[(1S)-1-{[(1R)-1-{[(1S)-1-{[(1R)-1-{[(1S)-1-{[(1R)-1-{[(1S)-1-{[(1R)-1-{[(1S)-1-{[(1R)-1-{[(1S)-1-[(2-hydroxyethyl)carbamoyl]-2-(1H-indol-3-yl)ethyl]carbamoyl}-3-methylbutyl]carbamoyl}-2-(1H-indol-3-yl)ethyl]carbamoyl}-3-methylbutyl]carbamoyl}-2-(1H-indol-3-yl)ethyl]carbamoyl}-3-methylbutyl]carbamoyl}-2-(1H-indol-3-yl)ethyl]carbamoyl}-2-methylpropyl]carbamoyl}-2-methylpropyl]carbamoyl}-2-methylpropyl]carbamoyl}ethyl]-2-{2-[(2S)-2-formamido-3-methylbutanamido]acetamido}-4-methylpentanamide

>  <JCHEM_VEBER_RULE>  (1) 
0

>  <MOLECULAR_WEIGHT>  (1) 
1811.253

>  <PRODUCTS>  (1) 
Antibiotic Cream; Antibiotic Cream Plus Pain Relief; Antibiotic Cream Plus Pain Relief for Kids; Antibiotic Cream for Kids; Antibiotic Drops; Antibiotic Ear Drops; Antibiotic Eye Drops; Antibiotic Plus Pain Relief Cream; Complete Antibiotic Ointment; Kenacomb Cream; Kenacomb Mild Cream; Kenacomb Mild Ointment; Kenacomb Ointment; Kenacomb Ont; Lidecomb Cream; Lidosporin Cream; Mecomb Crm 0.1%; Neocidin; Neomycin and Polymyxin B Sulfates and Gramicidin; Neosporin; Neosporin Antibiotic Cream; Neosporin Eye-ear Solution; Odan-spor; Optimyxin; Original Antibiotic Cream; Polycidin Eye, Ear Drops; Polysporin Antibiotic Burn Cream; Polysporin Antibiotic Cream; Polysporin Burn Formula Cream; Polysporin Cold Sore Ointment; Polysporin Complete; Polysporin Cream; Polysporin Eye and Ear Drops Sterile; Polysporin Plus Pain Relief; Polysporin Triple Antibiotic Ointment; Polysporin for Kids; Polysporin for Stitches; Polytopic Cream; Ratio-triacomb; Sandoz Opticort; Sofracort Ear/eye Ointment; Sofracort Sterile Ear/eye Drops; Sofracort Sterile Ear/eye Ointment; Soframycin Nasal Spray; Soframycin Ointment; Soframycin Skin Ointment; Theraderm Cream; Triple Antibiotic Ointment; Viaderm Kc Crm; Viaderm Kc Ont

>  <SECONDARY_ACCESSION_NUMBERS>  (1) 
BTD00036; BIOD00036

>  <SMILES>  (1) 
CC(C)C[C@@H](NC(=O)CNC(=O)[C@@H](NC=O)C(C)C)C(=O)N[C@@H](C)C(=O)N[C@H](C(C)C)C(=O)N[C@@H](C(C)C)C(=O)N[C@H](C(C)C)C(=O)N[C@@H](CC1=CNC2=C1C=CC=C2)C(=O)N[C@H](CC(C)C)C(=O)N[C@@H](CC1=CNC2=C1C=CC=C2)C(=O)N[C@H](CC(C)C)C(=O)N[C@@H](CC1=CNC2=C1C=CC=C2)C(=O)N[C@H](CC(C)C)C(=O)N[C@@H](CC1=CNC2=C1C=CC=C2)C(=O)NCCO

>  <SYNONYMS>  (1) 
Bacillus brevis gramicidin D; Gramicidin; Gramicidin A; Gramicidin B; Gramicidin C; Gramicidine

$$$$
