
     RDKit          2D

 74 76  0  0  1  0  0  0  0  0999 V2000
   -1.0890    1.2765    0.0000 C   0  0  0  0  0  0  0  0  0  0  0  0
   -1.0890   -0.3735    0.0000 C   0  0  0  0  0  0  0  0  0  0  0  0
    0.4101   -0.2159    0.0000 C   0  0  0  0  0  0  0  0  0  0  0  0
    0.8950    0.4515    0.0000 C   0  0  0  0  0  0  0  0  0  0  0  0
   -1.8035    0.8640    0.0000 C   0  0  0  0  0  0  0  0  0  0  0  0
   -1.0890   -1.1985    0.0000 C   0  0  0  0  0  0  0  0  0  0  0  0
   -1.8035    0.0390    0.0000 C   0  0  0  0  0  0  0  0  0  0  0  0
   -1.8035   -1.6110    0.0000 C   0  0  0  0  0  0  0  0  0  0  0  0
   -1.8035   -2.4360    0.0000 C   0  0  0  0  0  0  0  0  0  0  0  0
   -1.0890   -2.8485    0.0000 C   0  0  0  0  0  0  0  0  0  0  0  0
   -2.5179   -2.8485    0.0000 C   0  0  0  0  0  0  0  0  0  0  0  0
   -0.3745   -2.4360    0.0000 C   0  0  0  0  0  0  0  0  0  0  0  0
   -2.5179   -3.6735    0.0000 C   0  0  0  0  0  0  0  0  0  0  0  0
   -1.8035   -4.0860    0.0000 C   0  0  0  0  0  0  0  0  0  0  0  0
   -3.2324   -4.0860    0.0000 O   0  0  0  0  0  0  0  0  0  0  0  0
   -0.3044    2.3565    0.0000 C   0  0  0  0  0  0  0  0  0  0  0  0
    0.4101    1.9440    0.0000 C   0  0  0  0  0  0  0  0  0  0  0  0
    1.1246    2.3565    0.0000 C   0  0  0  0  0  0  0  0  0  0  0  0
    1.8390    1.9440    0.0000 C   0  0  0  0  0  0  0  0  0  0  0  0
    3.9825    2.3565    0.0000 C   0  0  0  0  0  0  0  0  0  0  0  0
    3.2680    1.1190    0.0000 C   0  0  0  0  0  0  0  0  0  0  0  0
    2.5535    2.3565    0.0000 C   0  0  0  0  0  0  0  0  0  0  0  0
    0.4101    1.1190    0.0000 C   0  0  0  0  0  0  0  0  0  0  0  0
   -0.3745    0.0390    0.0000 C   0  0  0  0  0  0  0  0  0  0  0  0
   -0.3745    0.8640    0.0000 C   0  0  0  0  0  0  0  0  0  0  0  0
   -0.3745    1.6890    0.0000 C   0  0  0  0  0  0  0  0  0  0  0  0
    3.2680    1.9440    0.0000 C   0  0  0  0  0  0  0  0  0  0  0  0
    3.9825    1.5315    0.0000 O   0  0  0  0  0  0  0  0  0  0  0  0
   -1.0890   -3.6735    0.0000 C   0  0  0  0  0  0  0  0  0  0  0  0
   -0.3745   -4.0860    0.0000 O   0  0  0  0  0  0  0  0  0  0  0  0
    0.0000    0.0000    0.0000 H   0  0  0  0  0  0  0  0  0  0  0  0
    0.0000    0.0000    0.0000 H   0  0  0  0  0  0  0  0  0  0  0  0
    0.0000    0.0000    0.0000 H   0  0  0  0  0  0  0  0  0  0  0  0
    0.0000    0.0000    0.0000 H   0  0  0  0  0  0  0  0  0  0  0  0
    0.0000    0.0000    0.0000 H   0  0  0  0  0  0  0  0  0  0  0  0
    0.0000    0.0000    0.0000 H   0  0  0  0  0  0  0  0  0  0  0  0
    0.0000    0.0000    0.0000 H   0  0  0  0  0  0  0  0  0  0  0  0
    0.0000    0.0000    0.0000 H   0  0  0  0  0  0  0  0  0  0  0  0
    0.0000    0.0000    0.0000 H   0  0  0  0  0  0  0  0  0  0  0  0
    0.0000    0.0000    0.0000 H   0  0  0  0  0  0  0  0  0  0  0  0
    0.0000    0.0000    0.0000 H   0  0  0  0  0  0  0  0  0  0  0  0
    0.0000    0.0000    0.0000 H   0  0  0  0  0  0  0  0  0  0  0  0
    0.0000    0.0000    0.0000 H   0  0  0  0  0  0  0  0  0  0  0  0
    0.0000    0.0000    0.0000 H   0  0  0  0  0  0  0  0  0  0  0  0
    0.0000    0.0000    0.0000 H   0  0  0  0  0  0  0  0  0  0  0  0
    0.0000    0.0000    0.0000 H   0  0  0  0  0  0  0  0  0  0  0  0
    0.0000    0.0000    0.0000 H   0  0  0  0  0  0  0  0  0  0  0  0
    0.0000    0.0000    0.0000 H   0  0  0  0  0  0  0  0  0  0  0  0
    0.0000    0.0000    0.0000 H   0  0  0  0  0  0  0  0  0  0  0  0
    0.0000    0.0000    0.0000 H   0  0  0  0  0  0  0  0  0  0  0  0
    0.0000    0.0000    0.0000 H   0  0  0  0  0  0  0  0  0  0  0  0
    0.0000    0.0000    0.0000 H   0  0  0  0  0  0  0  0  0  0  0  0
    0.0000    0.0000    0.0000 H   0  0  0  0  0  0  0  0  0  0  0  0
    0.0000    0.0000    0.0000 H   0  0  0  0  0  0  0  0  0  0  0  0
    0.0000    0.0000    0.0000 H   0  0  0  0  0  0  0  0  0  0  0  0
    0.0000    0.0000    0.0000 H   0  0  0  0  0  0  0  0  0  0  0  0
    0.0000    0.0000    0.0000 H   0  0  0  0  0  0  0  0  0  0  0  0
    0.0000    0.0000    0.0000 H   0  0  0  0  0  0  0  0  0  0  0  0
    0.0000    0.0000    0.0000 H   0  0  0  0  0  0  0  0  0  0  0  0
    0.0000    0.0000    0.0000 H   0  0  0  0  0  0  0  0  0  0  0  0
    0.0000    0.0000    0.0000 H   0  0  0  0  0  0  0  0  0  0  0  0
    0.0000    0.0000    0.0000 H   0  0  0  0  0  0  0  0  0  0  0  0
    0.0000    0.0000    0.0000 H   0  0  0  0  0  0  0  0  0  0  0  0
    0.0000    0.0000    0.0000 H   0  0  0  0  0  0  0  0  0  0  0  0
    0.0000    0.0000    0.0000 H   0  0  0  0  0  0  0  0  0  0  0  0
    0.0000    0.0000    0.0000 H   0  0  0  0  0  0  0  0  0  0  0  0
    0.0000    0.0000    0.0000 H   0  0  0  0  0  0  0  0  0  0  0  0
    0.0000    0.0000    0.0000 H   0  0  0  0  0  0  0  0  0  0  0  0
    0.0000    0.0000    0.0000 H   0  0  0  0  0  0  0  0  0  0  0  0
    0.0000    0.0000    0.0000 H   0  0  0  0  0  0  0  0  0  0  0  0
    0.0000    0.0000    0.0000 H   0  0  0  0  0  0  0  0  0  0  0  0
    0.0000    0.0000    0.0000 H   0  0  0  0  0  0  0  0  0  0  0  0
    0.0000    0.0000    0.0000 H   0  0  0  0  0  0  0  0  0  0  0  0
    0.0000    0.0000    0.0000 H   0  0  0  0  0  0  0  0  0  0  0  0
 24 25  1  0
 25 23  1  0
 25  1  1  0
 24  2  1  0
 24  3  1  0
 23  4  1  0
  1  5  1  0
  2  6  2  0
  2  7  1  0
  6  8  1  0
  8  9  2  0
  9 10  1  0
  9 11  1  0
 10 29  1  0
 10 12  2  3
 11 13  1  0
 29 14  1  0
 13 15  1  1
  3  4  1  0
  5  7  1  0
 13 14  1  0
 23 17  1  0
 17 16  1  6
 17 18  1  0
 18 19  1  0
 19 22  1  0
 22 27  1  0
 27 20  1  0
 27 21  1  0
 25 26  1  1
 27 28  1  0
 29 30  1  1
  1 31  1  0
  1 32  1  0
  3 33  1  0
  3 34  1  0
  4 35  1  0
  4 36  1  0
  5 37  1  0
  5 38  1  0
  6 39  1  0
  7 40  1  0
  7 41  1  0
  8 42  1  0
 11 43  1  0
 11 44  1  0
 12 45  1  0
 12 46  1  0
 13 47  1  0
 14 48  1  0
 14 49  1  0
 15 50  1  0
 16 51  1  0
 16 52  1  0
 16 53  1  0
 17 54  1  0
 18 55  1  0
 18 56  1  0
 19 57  1  0
 19 58  1  0
 20 59  1  0
 20 60  1  0
 20 61  1  0
 21 62  1  0
 21 63  1  0
 21 64  1  0
 22 65  1  0
 22 66  1  0
 23 67  1  6
 24 68  1  6
 26 69  1  0
 26 70  1  0
 26 71  1  0
 28 72  1  0
 29 73  1  0
 30 74  1  0
M  END
>  <ALOGPS_LOGP>  (1) 
5.51

>  <ALOGPS_LOGS>  (1) 
-4.80

>  <ALOGPS_SOLUBILITY>  (1) 
6.67e-03 g/l

>  <DATABASE_ID>  (1) 
DB00136

>  <DATABASE_NAME>  (1) 
drugbank

>  <DRUGBANK_ID>  (1) 
DB00136

>  <DRUG_GROUPS>  (1) 
approved; nutraceutical

>  <EXACT_MASS>  (1) 
416.329045274

>  <FORMULA>  (1) 
C27H44O3

>  <GENERIC_NAME>  (1) 
Calcitriol

>  <INCHI_IDENTIFIER>  (1) 
InChI=1S/C27H44O3/c1-18(8-6-14-26(3,4)30)23-12-13-24-20(9-7-15-27(23,24)5)10-11-21-16-22(28)17-25(29)19(21)2/h10-11,18,22-25,28-30H,2,6-9,12-17H2,1,3-5H3/b20-10+,21-11-/t18-,22-,23-,24+,25+,27-/m1/s1

>  <INCHI_KEY>  (1) 
GMRQFYUYWCNGIN-NKMMMXOESA-N

>  <INTERNATIONAL_BRANDS>  (1) 
Asentar; Calcitriol Oral Solution; Decostriol

>  <JCHEM_ACCEPTOR_COUNT>  (1) 
3

>  <JCHEM_AVERAGE_POLARIZABILITY>  (1) 
51.02439043535808

>  <JCHEM_BIOAVAILABILITY>  (1) 
1

>  <JCHEM_DONOR_COUNT>  (1) 
3

>  <JCHEM_FORMAL_CHARGE>  (1) 
0

>  <JCHEM_GHOSE_FILTER>  (1) 
0

>  <JCHEM_IUPAC>  (1) 
(1R,3S,5Z)-5-{2-[(1R,3aS,4E,7aR)-1-[(2R)-6-hydroxy-6-methylheptan-2-yl]-7a-methyl-octahydro-1H-inden-4-ylidene]ethylidene}-4-methylidenecyclohexane-1,3-diol

>  <JCHEM_LOGP>  (1) 
4.3507409966666675

>  <JCHEM_MDDR_LIKE_RULE>  (1) 
1

>  <JCHEM_NUMBER_OF_RINGS>  (1) 
3

>  <JCHEM_PHYSIOLOGICAL_CHARGE>  (1) 
0

>  <JCHEM_PKA>  (1) 
15.288747760735944

>  <JCHEM_PKA_STRONGEST_ACIDIC>  (1) 
14.392873609845417

>  <JCHEM_PKA_STRONGEST_BASIC>  (1) 
-1.2544418727034898

>  <JCHEM_POLAR_SURFACE_AREA>  (1) 
60.69

>  <JCHEM_REFRACTIVITY>  (1) 
126.53249999999996

>  <JCHEM_ROTATABLE_BOND_COUNT>  (1) 
6

>  <JCHEM_RULE_OF_FIVE>  (1) 
1

>  <JCHEM_TRADITIONAL_IUPAC>  (1) 
calcitriol

>  <JCHEM_VEBER_RULE>  (1) 
0

>  <MOLECULAR_WEIGHT>  (1) 
416.6365

>  <PRODUCTS>  (1) 
Calcijex; Calcitriol; Calcitriol Injection; Calcitriol Injection USP; Calcitriol-odan; Rocaltrol; Rocaltrol Cap 0.25mcg; Rocaltrol Cap 0.5mcg; Rocaltrol Oral Solution 1mcg/ml; Silkis; Vectical

>  <SECONDARY_ACCESSION_NUMBERS>  (1) 
NUTR00003; APRD00246; DB05314

>  <SMILES>  (1) 
C[C@H](CCCC(C)(C)O)[C@@]1([H])CC[C@@]2([H])\C(CCC[C@]12C)=C\C=C1\C[C@@H](O)C[C@H](O)C1=C

>  <SYNONYMS>  (1) 
(1S,3R,5Z,7E)-9,10-secocholesta-5,7,10-triene-1,3,25-triol; (1α,3β,5Z,7E)-9,10-secocholesta-5,7,10(19)-triene-1,3,25-triol; (5Z,7E)-(1S,3R)-9,10-secocholesta-5,7,10(19)-triene-1,3,25-triol; 1-alpha-25-Dihydroxyvitamin D3; 1,25-DHCC; 1,25-dihydroxycholecalciferol; 1α,25-dihydroxycholecalciferol; 1α,25-dihydroxyvitamin D3; 1α,25(OH)2D3; Calcitriol; Calcitriolum

$$$$
