948
     RDKit          2D

 61 64  0  0  1  0  0  0  0  0999 V2000
    7.6202   -0.9711    0.0000 S   0  0  0  0  0  0  0  0  0  0  0  0
    5.2617    3.5480    0.0000 S   0  0  0  0  0  0  0  0  0  0  0  0
    5.4215   -2.6390    0.0000 O   0  0  0  0  0  0  0  0  0  0  0  0
    7.3231   -3.7037    0.0000 O   0  0  0  0  0  0  0  0  0  0  0  0
    8.6820   -3.2622    0.0000 O   0  0  0  0  0  0  0  0  0  0  0  0
    4.4090   -1.6464    0.0000 O   0  0  0  0  0  0  0  0  0  0  0  0
    2.8777    0.9037    0.0000 O   0  0  0  0  0  0  0  0  0  0  0  0
    5.3520    1.7554    0.0000 O   0  0  0  0  0  0  0  0  0  0  0  0
    5.7796    2.9058    0.0000 O   0  0  0  0  0  0  0  0  0  0  0  0
    4.7439    4.1902    0.0000 O   0  0  0  0  0  0  0  0  0  0  0  0
    6.8355   -2.0510    0.0000 N   0  0  0  0  0  0  0  0  0  0  0  0
    5.4215   -0.6381    0.0000 N   0  0  0  0  0  0  0  0  0  0  0  0
    4.2572    0.5311    0.0000 N   0  0  0  0  0  0  0  0  0  0  0  0
    3.8902    1.9121    0.0000 N   0  0  0  0  0  0  0  0  0  0  0  0
    4.6195    3.0301    0.0000 N   0  0  0  0  0  0  0  0  0  0  0  0
    6.8355   -1.2260    0.0000 C   0  0  0  0  0  0  0  0  0  0  0  0
    8.1050   -1.6385    0.0000 C   0  0  0  0  0  0  0  0  0  0  0  0
    7.6202   -2.3060    0.0000 C   0  0  0  0  0  0  0  0  0  0  0  0
    6.0037   -1.2227    0.0000 C   0  0  0  0  0  0  0  0  0  0  0  0
    6.0037   -2.0545    0.0000 C   0  0  0  0  0  0  0  0  0  0  0  0
    8.7725   -1.1536    0.0000 C   0  0  0  0  0  0  0  0  0  0  0  0
    8.7725   -2.1235    0.0000 C   0  0  0  0  0  0  0  0  0  0  0  0
    7.8751   -3.0906    0.0000 C   0  0  0  0  0  0  0  0  0  0  0  0
    4.6242   -0.8500    0.0000 C   0  0  0  0  0  0  0  0  0  0  0  0
    4.0420   -0.2654    0.0000 C   0  0  0  0  0  0  0  0  0  0  0  0
    3.2447   -0.4773    0.0000 C   0  0  0  0  0  0  0  0  0  0  0  0
    3.6750    1.1157    0.0000 C   0  0  0  0  0  0  0  0  0  0  0  0
    3.3723    2.5543    0.0000 C   0  0  0  0  0  0  0  0  0  0  0  0
    3.8231    3.2452    0.0000 C   0  0  0  0  0  0  0  0  0  0  0  0
    4.6610    2.2061    0.0000 C   0  0  0  0  0  0  0  0  0  0  0  0
    3.0295   -1.2737    0.0000 C   0  0  0  0  0  0  0  0  0  0  0  0
    2.6625    0.1073    0.0000 C   0  0  0  0  0  0  0  0  0  0  0  0
    2.2322   -1.4857    0.0000 C   0  0  0  0  0  0  0  0  0  0  0  0
    1.8652   -0.1046    0.0000 C   0  0  0  0  0  0  0  0  0  0  0  0
    5.9039    4.0659    0.0000 C   0  0  0  0  0  0  0  0  0  0  0  0
    1.6500   -0.9011    0.0000 C   0  0  0  0  0  0  0  0  0  0  0  0
    0.0000    0.0000    0.0000 H   0  0  0  0  0  0  0  0  0  0  0  0
    0.0000    0.0000    0.0000 H   0  0  0  0  0  0  0  0  0  0  0  0
    0.0000    0.0000    0.0000 H   0  0  0  0  0  0  0  0  0  0  0  0
    0.0000    0.0000    0.0000 H   0  0  0  0  0  0  0  0  0  0  0  0
    0.0000    0.0000    0.0000 H   0  0  0  0  0  0  0  0  0  0  0  0
    0.0000    0.0000    0.0000 H   0  0  0  0  0  0  0  0  0  0  0  0
    0.0000    0.0000    0.0000 H   0  0  0  0  0  0  0  0  0  0  0  0
    0.0000    0.0000    0.0000 H   0  0  0  0  0  0  0  0  0  0  0  0
    0.0000    0.0000    0.0000 H   0  0  0  0  0  0  0  0  0  0  0  0
    0.0000    0.0000    0.0000 H   0  0  0  0  0  0  0  0  0  0  0  0
    0.0000    0.0000    0.0000 H   0  0  0  0  0  0  0  0  0  0  0  0
    0.0000    0.0000    0.0000 H   0  0  0  0  0  0  0  0  0  0  0  0
    0.0000    0.0000    0.0000 H   0  0  0  0  0  0  0  0  0  0  0  0
    0.0000    0.0000    0.0000 H   0  0  0  0  0  0  0  0  0  0  0  0
    0.0000    0.0000    0.0000 H   0  0  0  0  0  0  0  0  0  0  0  0
    0.0000    0.0000    0.0000 H   0  0  0  0  0  0  0  0  0  0  0  0
    0.0000    0.0000    0.0000 H   0  0  0  0  0  0  0  0  0  0  0  0
    0.0000    0.0000    0.0000 H   0  0  0  0  0  0  0  0  0  0  0  0
    0.0000    0.0000    0.0000 H   0  0  0  0  0  0  0  0  0  0  0  0
    0.0000    0.0000    0.0000 H   0  0  0  0  0  0  0  0  0  0  0  0
    0.0000    0.0000    0.0000 H   0  0  0  0  0  0  0  0  0  0  0  0
    0.0000    0.0000    0.0000 H   0  0  0  0  0  0  0  0  0  0  0  0
    0.0000    0.0000    0.0000 H   0  0  0  0  0  0  0  0  0  0  0  0
    0.0000    0.0000    0.0000 H   0  0  0  0  0  0  0  0  0  0  0  0
    0.0000    0.0000    0.0000 H   0  0  0  0  0  0  0  0  0  0  0  0
  1 16  1  0
  1 17  1  0
  2  9  2  0
  2 10  2  0
  2 15  1  0
  2 35  1  0
  3 20  2  0
  4 23  1  0
  5 23  2  0
  6 24  2  0
  7 27  2  0
  8 30  2  0
 11 16  1  0
 11 18  1  0
 11 20  1  0
 19 12  1  1
 12 24  1  0
 25 13  1  1
 13 27  1  0
 14 27  1  0
 14 28  1  0
 14 30  1  0
 15 29  1  0
 15 30  1  0
 16 19  1  0
 17 18  1  0
 17 21  1  0
 17 22  1  0
 18 23  1  6
 19 20  1  0
 24 25  1  0
 25 26  1  0
 26 31  2  0
 26 32  1  0
 28 29  1  0
 31 33  1  0
 32 34  2  0
 33 36  2  0
 34 36  1  0
  4 37  1  0
 12 38  1  0
 13 39  1  0
 16 40  1  6
 18 41  1  0
 19 42  1  0
 21 43  1  0
 21 44  1  0
 21 45  1  0
 22 46  1  0
 22 47  1  0
 22 48  1  0
 25 49  1  0
 28 50  1  0
 28 51  1  0
 29 52  1  0
 29 53  1  0
 31 54  1  0
 32 55  1  0
 33 56  1  0
 34 57  1  0
 35 58  1  0
 35 59  1  0
 35 60  1  0
 36 61  1  0
M  END
>  <ALOGPS_LOGP>  (1) 
0.21

>  <ALOGPS_LOGS>  (1) 
-3.06

>  <ALOGPS_SOLUBILITY>  (1) 
4.71e-01 g/l

>  <DATABASE_ID>  (1) 
DB00948

>  <DATABASE_NAME>  (1) 
drugbank

>  <DRUGBANK_ID>  (1) 
DB00948

>  <DRUG_GROUPS>  (1) 
approved; investigational

>  <EXACT_MASS>  (1) 
539.114454181

>  <FORMULA>  (1) 
C21H25N5O8S2

>  <GENERIC_NAME>  (1) 
Mezlocillin

>  <INCHI_IDENTIFIER>  (1) 
InChI=1S/C21H25N5O8S2/c1-21(2)14(18(29)30)26-16(28)13(17(26)35-21)22-15(27)12(11-7-5-4-6-8-11)23-19(31)24-9-10-25(20(24)32)36(3,33)34/h4-8,12-14,17H,9-10H2,1-3H3,(H,22,27)(H,23,31)(H,29,30)/t12-,13-,14+,17-/m1/s1

>  <INCHI_KEY>  (1) 
YPBATNHYBCGSSN-VWPFQQQWSA-N

>  <JCHEM_ACCEPTOR_COUNT>  (1) 
8

>  <JCHEM_AVERAGE_POLARIZABILITY>  (1) 
51.49914225343978

>  <JCHEM_BIOAVAILABILITY>  (1) 
1

>  <JCHEM_DONOR_COUNT>  (1) 
3

>  <JCHEM_FORMAL_CHARGE>  (1) 
0

>  <JCHEM_GHOSE_FILTER>  (1) 
0

>  <JCHEM_IUPAC>  (1) 
(2S,5R,6R)-6-[(2R)-2-[(3-methanesulfonyl-2-oxoimidazolidine-1-carbonyl)amino]-2-phenylacetamido]-3,3-dimethyl-7-oxo-4-thia-1-azabicyclo[3.2.0]heptane-2-carboxylic acid

>  <JCHEM_LOGP>  (1) 
-0.8415241573333339

>  <JCHEM_MDDR_LIKE_RULE>  (1) 
0

>  <JCHEM_NUMBER_OF_RINGS>  (1) 
4

>  <JCHEM_PHYSIOLOGICAL_CHARGE>  (1) 
-1

>  <JCHEM_PKA>  (1) 
11.419862294284583

>  <JCHEM_PKA_STRONGEST_ACIDIC>  (1) 
3.4850654833781647

>  <JCHEM_PKA_STRONGEST_BASIC>  (1) 
-5.9403001768537065

>  <JCHEM_POLAR_SURFACE_AREA>  (1) 
173.5

>  <JCHEM_REFRACTIVITY>  (1) 
124.87790000000001

>  <JCHEM_ROTATABLE_BOND_COUNT>  (1) 
5

>  <JCHEM_RULE_OF_FIVE>  (1) 
0

>  <JCHEM_TRADITIONAL_IUPAC>  (1) 
mezlocillin

>  <JCHEM_VEBER_RULE>  (1) 
0

>  <MOLECULAR_WEIGHT>  (1) 
539.582

>  <SALTS>  (1) 
Mezlocillin sodium; Mezlocillin sodium monohydrate

>  <SECONDARY_ACCESSION_NUMBERS>  (1) 
APRD01113

>  <SMILES>  (1) 
[H][C@]12SC(C)(C)[C@@H](N1C(=O)[C@H]2NC(=O)[C@H](NC(=O)N1CCN(C1=O)S(C)(=O)=O)C1=CC=CC=C1)C(O)=O

$$$$
