543
     RDKit          2D

 38 41  0  0  0  0  0  0  0  0999 V2000
    1.5842   -0.9947    0.0000 Cl  0  0  0  0  0  0  0  0  0  0  0  0
    4.6236   -2.0459    0.0000 O   0  0  0  0  0  0  0  0  0  0  0  0
    3.8840    0.4029    0.0000 N   0  0  0  0  0  0  0  0  0  0  0  0
    3.1967    1.8302    0.0000 N   0  0  0  0  0  0  0  0  0  0  0  0
    5.0197   -0.3107    0.0000 N   0  0  0  0  0  0  0  0  0  0  0  0
    4.3302    1.0573    0.0000 C   0  0  0  0  0  0  0  0  0  0  0  0
    3.0942    0.4621    0.0000 C   0  0  0  0  0  0  0  0  0  0  0  0
    3.9866    1.7710    0.0000 C   0  0  0  0  0  0  0  0  0  0  0  0
    2.7505    1.1757    0.0000 C   0  0  0  0  0  0  0  0  0  0  0  0
    4.2277   -0.3107    0.0000 C   0  0  0  0  0  0  0  0  0  0  0  0
    3.7338   -0.9300    0.0000 C   0  0  0  0  0  0  0  0  0  0  0  0
    3.9100   -1.7022    0.0000 C   0  0  0  0  0  0  0  0  0  0  0  0
    5.5136   -0.9300    0.0000 C   0  0  0  0  0  0  0  0  0  0  0  0
    2.9492   -0.6747    0.0000 C   0  0  0  0  0  0  0  0  0  0  0  0
    5.3373   -1.7023    0.0000 C   0  0  0  0  0  0  0  0  0  0  0  0
    3.3140   -2.2726    0.0000 C   0  0  0  0  0  0  0  0  0  0  0  0
    2.3401   -1.2311    0.0000 C   0  0  0  0  0  0  0  0  0  0  0  0
    2.5237   -2.0355    0.0000 C   0  0  0  0  0  0  0  0  0  0  0  0
    6.2982   -0.6747    0.0000 C   0  0  0  0  0  0  0  0  0  0  0  0
    5.9334   -2.2726    0.0000 C   0  0  0  0  0  0  0  0  0  0  0  0
    6.9073   -1.2312    0.0000 C   0  0  0  0  0  0  0  0  0  0  0  0
    6.7236   -2.0355    0.0000 C   0  0  0  0  0  0  0  0  0  0  0  0
    0.0000    0.0000    0.0000 H   0  0  0  0  0  0  0  0  0  0  0  0
    0.0000    0.0000    0.0000 H   0  0  0  0  0  0  0  0  0  0  0  0
    0.0000    0.0000    0.0000 H   0  0  0  0  0  0  0  0  0  0  0  0
    0.0000    0.0000    0.0000 H   0  0  0  0  0  0  0  0  0  0  0  0
    0.0000    0.0000    0.0000 H   0  0  0  0  0  0  0  0  0  0  0  0
    0.0000    0.0000    0.0000 H   0  0  0  0  0  0  0  0  0  0  0  0
    0.0000    0.0000    0.0000 H   0  0  0  0  0  0  0  0  0  0  0  0
    0.0000    0.0000    0.0000 H   0  0  0  0  0  0  0  0  0  0  0  0
    0.0000    0.0000    0.0000 H   0  0  0  0  0  0  0  0  0  0  0  0
    0.0000    0.0000    0.0000 H   0  0  0  0  0  0  0  0  0  0  0  0
    0.0000    0.0000    0.0000 H   0  0  0  0  0  0  0  0  0  0  0  0
    0.0000    0.0000    0.0000 H   0  0  0  0  0  0  0  0  0  0  0  0
    0.0000    0.0000    0.0000 H   0  0  0  0  0  0  0  0  0  0  0  0
    0.0000    0.0000    0.0000 H   0  0  0  0  0  0  0  0  0  0  0  0
    0.0000    0.0000    0.0000 H   0  0  0  0  0  0  0  0  0  0  0  0
    0.0000    0.0000    0.0000 H   0  0  0  0  0  0  0  0  0  0  0  0
  1 17  1  0
  2 12  1  0
  2 15  1  0
  3  6  1  0
  3  7  1  0
  3 10  1  0
  4  8  1  0
  4  9  1  0
  5 10  2  0
  5 13  1  0
  6  8  1  0
  7  9  1  0
 10 11  1  0
 11 12  2  0
 11 14  1  0
 12 16  1  0
 13 15  2  0
 13 19  1  0
 14 17  2  0
 15 20  1  0
 16 18  2  0
 17 18  1  0
 19 21  2  0
 20 22  2  0
 21 22  1  0
  4 23  1  0
  6 24  1  0
  6 25  1  0
  7 26  1  0
  7 27  1  0
  8 28  1  0
  8 29  1  0
  9 30  1  0
  9 31  1  0
 14 32  1  0
 16 33  1  0
 18 34  1  0
 19 35  1  0
 20 36  1  0
 21 37  1  0
 22 38  1  0
M  END
>  <ALOGPS_LOGP>  (1) 
2.82

>  <ALOGPS_LOGS>  (1) 
-3.26

>  <ALOGPS_SOLUBILITY>  (1) 
1.71e-01 g/l

>  <DATABASE_ID>  (1) 
DB00543

>  <DATABASE_NAME>  (1) 
drugbank

>  <DRUGBANK_ID>  (1) 
DB00543

>  <DRUG_GROUPS>  (1) 
approved

>  <EXACT_MASS>  (1) 
313.098189856

>  <FORMULA>  (1) 
C17H16ClN3O

>  <GENERIC_NAME>  (1) 
Amoxapine

>  <INCHI_IDENTIFIER>  (1) 
InChI=1S/C17H16ClN3O/c18-12-5-6-15-13(11-12)17(21-9-7-19-8-10-21)20-14-3-1-2-4-16(14)22-15/h1-6,11,19H,7-10H2

>  <INCHI_KEY>  (1) 
QWGDMFLQWFTERH-UHFFFAOYSA-N

>  <INTERNATIONAL_BRANDS>  (1) 
Adisen; Amolife; Amoxan; Asendin; Asendis; Défanyl; Demolox; Oxamine; Oxcap

>  <JCHEM_ACCEPTOR_COUNT>  (1) 
3

>  <JCHEM_AVERAGE_POLARIZABILITY>  (1) 
32.81716403494525

>  <JCHEM_BIOAVAILABILITY>  (1) 
1

>  <JCHEM_DONOR_COUNT>  (1) 
1

>  <JCHEM_FORMAL_CHARGE>  (1) 
0

>  <JCHEM_GHOSE_FILTER>  (1) 
1

>  <JCHEM_IUPAC>  (1) 
13-chloro-10-(piperazin-1-yl)-2-oxa-9-azatricyclo[9.4.0.0³,⁸]pentadeca-1(11),3,5,7,9,12,14-heptaene

>  <JCHEM_LOGP>  (1) 
3.077554494666667

>  <JCHEM_MDDR_LIKE_RULE>  (1) 
0

>  <JCHEM_NUMBER_OF_RINGS>  (1) 
4

>  <JCHEM_PHYSIOLOGICAL_CHARGE>  (1) 
1

>  <JCHEM_PKA_STRONGEST_BASIC>  (1) 
8.825946769984718

>  <JCHEM_POLAR_SURFACE_AREA>  (1) 
36.86

>  <JCHEM_REFRACTIVITY>  (1) 
89.81640000000002

>  <JCHEM_ROTATABLE_BOND_COUNT>  (1) 
0

>  <JCHEM_RULE_OF_FIVE>  (1) 
1

>  <JCHEM_TRADITIONAL_IUPAC>  (1) 
amoxapine

>  <JCHEM_VEBER_RULE>  (1) 
1

>  <MOLECULAR_WEIGHT>  (1) 
313.781

>  <PRODUCTS>  (1) 
Amoxapine; Asendin - Tab 100mg; Asendin - Tab 25mg; Asendin - Tab 50mg; Asendin Tab 100mg; Asendin Tab 25mg; Asendin Tab 50mg

>  <SECONDARY_ACCESSION_NUMBERS>  (1) 
APRD00142

>  <SMILES>  (1) 
ClC1=CC2=C(OC3=CC=CC=C3N=C2N2CCNCC2)C=C1

>  <SYNONYMS>  (1) 
Amoxapin; Amoxapina; Amoxapinum; Amoxepine

$$$$
