316
     RDKit          2D

 20 20  0  0  0  0  0  0  0  0999 V2000
    2.3645   -2.1409    0.0000 O   0  0  0  0  0  0  0  0  0  0  0  0
    3.7934    1.1591    0.0000 O   0  0  0  0  0  0  0  0  0  0  0  0
    2.3645    1.1591    0.0000 N   0  0  0  0  0  0  0  0  0  0  0  0
    2.3645    0.3341    0.0000 C   0  0  0  0  0  0  0  0  0  0  0  0
    3.0790   -0.0784    0.0000 C   0  0  0  0  0  0  0  0  0  0  0  0
    1.6500   -0.0784    0.0000 C   0  0  0  0  0  0  0  0  0  0  0  0
    3.0790   -0.9034    0.0000 C   0  0  0  0  0  0  0  0  0  0  0  0
    1.6500   -0.9034    0.0000 C   0  0  0  0  0  0  0  0  0  0  0  0
    2.3645   -1.3159    0.0000 C   0  0  0  0  0  0  0  0  0  0  0  0
    3.0790    1.5716    0.0000 C   0  0  0  0  0  0  0  0  0  0  0  0
    3.0790    2.3966    0.0000 C   0  0  0  0  0  0  0  0  0  0  0  0
    0.0000    0.0000    0.0000 H   0  0  0  0  0  0  0  0  0  0  0  0
    0.0000    0.0000    0.0000 H   0  0  0  0  0  0  0  0  0  0  0  0
    0.0000    0.0000    0.0000 H   0  0  0  0  0  0  0  0  0  0  0  0
    0.0000    0.0000    0.0000 H   0  0  0  0  0  0  0  0  0  0  0  0
    0.0000    0.0000    0.0000 H   0  0  0  0  0  0  0  0  0  0  0  0
    0.0000    0.0000    0.0000 H   0  0  0  0  0  0  0  0  0  0  0  0
    0.0000    0.0000    0.0000 H   0  0  0  0  0  0  0  0  0  0  0  0
    0.0000    0.0000    0.0000 H   0  0  0  0  0  0  0  0  0  0  0  0
    0.0000    0.0000    0.0000 H   0  0  0  0  0  0  0  0  0  0  0  0
  1  9  1  0
  2 10  2  0
  3  4  1  0
  3 10  1  0
  4  5  2  0
  4  6  1  0
  5  7  1  0
  6  8  2  0
  7  9  2  0
  8  9  1  0
 10 11  1  0
  1 12  1  0
  3 13  1  0
  5 14  1  0
  6 15  1  0
  7 16  1  0
  8 17  1  0
 11 18  1  0
 11 19  1  0
 11 20  1  0
M  END
>  <ALOGPS_LOGP>  (1) 
0.51

>  <ALOGPS_LOGS>  (1) 
-1.56

>  <ALOGPS_SOLUBILITY>  (1) 
4.15e+00 g/l

>  <DATABASE_ID>  (1) 
DB00316

>  <DATABASE_NAME>  (1) 
drugbank

>  <DRUGBANK_ID>  (1) 
DB00316

>  <DRUG_GROUPS>  (1) 
approved

>  <EXACT_MASS>  (1) 
151.063328537

>  <FORMULA>  (1) 
C8H9NO2

>  <GENERIC_NAME>  (1) 
Acetaminophen

>  <INCHI_IDENTIFIER>  (1) 
InChI=1S/C8H9NO2/c1-6(10)9-7-2-4-8(11)5-3-7/h2-5,11H,1H3,(H,9,10)

>  <INCHI_KEY>  (1) 
RZVAJINKPMORJF-UHFFFAOYSA-N

>  <INTERNATIONAL_BRANDS>  (1) 
Acamol; Aceta Elixir; Aceta Tablets; Acetalgin; Actamin; Actimol; Algotropyl; Alvedon; Aminofen; Anacin-3; Anhiba; Apacet; Banesin; Calpol; Conacetol; Dafalgan; Dapa X-S; Disprol; Dolprone; Dymadon; Dypap; Enelfa; Febridol; Febrilix; Finimal; Gelocatil; Genapap; Genebs; Injectapap; Liquiprin; Napafen; Oraphen-PD; Paldesic; Panofen; Paraspen; Parmol; Redutemp; Rounox; Salzone; Snaplets-FR; St. Joseph Fever Reducer; Suppap; Tapanol; Valorin

>  <JCHEM_ACCEPTOR_COUNT>  (1) 
2

>  <JCHEM_AVERAGE_POLARIZABILITY>  (1) 
15.521685397895368

>  <JCHEM_BIOAVAILABILITY>  (1) 
1

>  <JCHEM_DONOR_COUNT>  (1) 
2

>  <JCHEM_FORMAL_CHARGE>  (1) 
0

>  <JCHEM_GHOSE_FILTER>  (1) 
0

>  <JCHEM_IUPAC>  (1) 
N-(4-hydroxyphenyl)acetamide

>  <JCHEM_LOGP>  (1) 
0.9073908616666664

>  <JCHEM_MDDR_LIKE_RULE>  (1) 
0

>  <JCHEM_NUMBER_OF_RINGS>  (1) 
1

>  <JCHEM_PHYSIOLOGICAL_CHARGE>  (1) 
0

>  <JCHEM_PKA>  (1) 
16.653657748938226

>  <JCHEM_PKA_STRONGEST_ACIDIC>  (1) 
9.464366400804778

>  <JCHEM_PKA_STRONGEST_BASIC>  (1) 
-4.362180897047585

>  <JCHEM_POLAR_SURFACE_AREA>  (1) 
49.33

>  <JCHEM_REFRACTIVITY>  (1) 
42.901900000000005

>  <JCHEM_ROTATABLE_BOND_COUNT>  (1) 
1

>  <JCHEM_RULE_OF_FIVE>  (1) 
1

>  <JCHEM_TRADITIONAL_IUPAC>  (1) 
acetaminophen

>  <JCHEM_VEBER_RULE>  (1) 
0

>  <MOLECULAR_WEIGHT>  (1) 
151.1626

>  <PRODUCTS>  (1) 
(extra Strength) Acetaminophen, Caffeine & 8mg Codeine Phosphate Caplets; 10 Person ANSI; 222 AF Extra Strength Caplet (500mg); 222 AF Regular Strength Caplet (325mg); 222af Extra Strength 500mg; 222af Regular Strength 325mg; 25 Person ANSI; 50 Person ANSI; 7 Select Acetaminophen; 7 Select Childrens Pain Relief; 7 Select Day Time Relief; 7 Select Migraine Formula; 7 Select Night Time Relief; 7 Select Night Time Severe Cold Cough and Flu; 7 Select Night Time severe cold, cough and flu; 7 Select Pain Relief PM; 8 Hour Pain Relief; 8HR Arthritis Pain Relief; 999 Cold Remedy; 999 Cold Remedy Granular; 999 Ganmaoling Cold; A.F. Anacin Tablets 325mg; A.F.anacin Extra Strength Tablets; A.M. Cold Relief Formula; ACETAMINOPHEN AND CODEINe; ACETAMINOPHEN DEXTROMETHORPHAN HYDROBROMIDE and DOXYLAMINE SUCCINATE; ACETAMINOPHEN DEXTROMETHORPHAN HYDROBROMIDE and PHENYLEPHRINE HYDROCHLORIDE; ACETAMINOPHEN with CODEINE; ACETAMINOPHEN, DEXTROMETHORPHAN HYDROBROMIDE, and DOXYLAMINE SUCCINATE; ACETAMINOPHEN, DEXTROMETHORPHAN HYDROBROMIDE, and PHENYLEPHRINE HYDROCHLORIDE; Abenol; Acephen; Acet 120; Acet 160; Acet 2; Acet 3; Acet 325; Acet 650; Acet Codeine 30; Acet Codeine 60; Aceta-gesic; Acetab Tab 325mg; Acetadryl; Acetaminophen; Acetaminophen (red); Acetaminophen - APAP 8 Hour; Acetaminophen - APAP Arthritis; Acetaminophen / Diphenhydramine 500/25 mg; Acetaminophen 160mg Children Elixir USP; Acetaminophen 160mg Children Liquid Suspension USP; Acetaminophen 300 Mg With 15 Mg Caffeine and 8 Mg Codeine Phosphate; Acetaminophen 300mg, Caffeine & Codeine; Acetaminophen 325 C & C; Acetaminophen 325 Mg Caffeine and Codeine; Acetaminophen 325 Mg Tablets; Acetaminophen 325 Mg USP; Acetaminophen 325 Mg USP Regular Strength; Acetaminophen 325 Mg With 15 Mg Caffeine and 8 Mg Codeine Phosphate; Acetaminophen 325 mg; Acetaminophen 325mg; Acetaminophen 325mg + Methocarbamol 400mg Caplets; Acetaminophen 325mg Tab; Acetaminophen 325mg Tablet; Acetaminophen 325mg Tablets Regular Strength; Acetaminophen 500 Mg Compound Tablets With Codeine; Acetaminophen 500 Mg Tablets; Acetaminophen 500 Mg Tablets Extra Strength Easy To Swallow; Acetaminophen 500 Mg Tablets USP Extra Strength; Acetaminophen 500 Mg USP; Acetaminophen 500 Mg With 15 Mg Caffeine and 8 Mg Codeine Phosphate; Acetaminophen 500 mg; Acetaminophen 500mg; Acetaminophen 500mg + Methocarbamol 400mg Extra Strength Caplets; Acetaminophen 500mg Extra Strength; Acetaminophen 500mg Tablets Extra Strength; Acetaminophen 500mg and Caffeine 65mg; Acetaminophen 500mg, Caffeine and 8mg Codeine Phosphate; Acetaminophen 8 Hour; Acetaminophen 8-hour; Acetaminophen 80 Mg Fruit Chew; Acetaminophen And Codeine; Acetaminophen And Codeine Phosphate; Acetaminophen Arthritis Pain; Acetaminophen Caffeine & 8mg Cod Phos Tab; Acetaminophen Caffeine & 8mg Cod. Phos. Tab; Acetaminophen Caplet 325mg USP; Acetaminophen Caplet 500mg; Acetaminophen Caplets 325 mg; Acetaminophen Caplets 325mg; Acetaminophen Caplets 500 mg; Acetaminophen Caplets Extra Strength; Acetaminophen Children's Chewable Tab 160mg; Acetaminophen Childrens; Acetaminophen Childrens Chewable Tab 80mg; Acetaminophen Compound Tablets With Codeine 8mg; Acetaminophen Comprime A Croquer 80mg; Acetaminophen Dextromethorphan HBr Doxylamine succinate Phenylephrine HCl; Acetaminophen Dextromethorphan Hydrobromide Doxylamine Succinate Phenylephrine Hydrochloride; Acetaminophen Dextromethorphan Hydrobromide Phenylephrine Hydrochloride; Acetaminophen Diphenhydramine HCl; Acetaminophen Drops 80mg/ml USP; Acetaminophen Easy Swallow; Acetaminophen Easy Tabs; Acetaminophen Easy Tabs Extra Strength; Acetaminophen Elixir With 8mg Codeine Phosphate Syrup; Acetaminophen Extended Release; Acetaminophen Extra Strength; Acetaminophen Extra Strength Liquid Gels; Acetaminophen Extra Strength Rapid Burst Cherry; Acetaminophen Extra Strength Tab 500mg; Acetaminophen Extra Strength Tab 500mg USP; Acetaminophen Extra Strong; Acetaminophen Gelcaps Extra Strength; Acetaminophen Headache Ultra Relief; Acetaminophen Junior; Acetaminophen Junior Strength; Acetaminophen Liquid Gel Capsules; Acetaminophen Maximum Strength; Acetaminophen Oral Sol for Children USP; Acetaminophen Oral Soln 80mg/5ml USP; Acetaminophen Oral Solution; Acetaminophen Oral Solution 32mg/ml; Acetaminophen Oral Solution 80 mg/ml; Acetaminophen Oral Solution 80mg/5ml; Acetaminophen Oral Solution 80mg/ml USP; Acetaminophen Oral Solution Drops 80mg/ml; Acetaminophen Oral Solution USP 160mg/5ml; Acetaminophen Oral Suspension USP (children's Suspension Liquid); Acetaminophen Oral Suspension USP (infant's Suspension Drops); Acetaminophen PM; Acetaminophen PM Extra Strength; Acetaminophen PM Extra strength; Acetaminophen PM Rapid Release; Acetaminophen PMExtra Strength Extra Strength; Acetaminophen Pain Relief; Acetaminophen Pain Reliever Fever Reducer; Acetaminophen Pain Reliever/fever Reducer; Acetaminophen Pediatric Drops 80 mg/ml USP; Acetaminophen Phenylephrine HCl; Acetaminophen Rapid Action Gelcaps 500mg; Acetaminophen Rapid Release; Acetaminophen Rapid Release Extra Strength; Acetaminophen Rapid Tabs Childrens; Acetaminophen Rapid Tabs Junior; Acetaminophen Regular Strength; Acetaminophen Relief Regular Strength; Acetaminophen Sinus Congestion and Pain A P J Coated; Acetaminophen Sinus Congestion and Pain Daytime; Acetaminophen Sol Orale D'acetamin 80mg/5ml; Acetaminophen Solution Oral Gtte 80mg/ml USP; Acetaminophen Syrup 160mg/5ml USP; Acetaminophen Tab 325mg; Acetaminophen Tab 325mg USP; Acetaminophen Tab 500mg; Acetaminophen Tab 500mg Ext Strength; Acetaminophen Tab 500mg Extra Strength USP; Acetaminophen Tab 500mg USP; Acetaminophen Tab Extra Strength 500mg; Acetaminophen Tablet 325mg; Acetaminophen Tablets 325 mg; Acetaminophen Tablets 325mg; Acetaminophen Tablets 500 Mg Extra Strength; Acetaminophen Tablets Extra Strength; Acetaminophen Tablets Regular Strength; Acetaminophen Tablets USP; Acetaminophen Tablets USP 160 Mg Chewable; Acetaminophen Tablets USP 325 mg; Acetaminophen Tablets USP 325mg; Acetaminophen Tablets USP 500 mg; Acetaminophen Tablets USP 500mg; Acetaminophen Tablets USP Soft Chews 160mg; Acetaminophen Tablets, 500 mg Extra Strength; Acetaminophen USP Extra Strength Caplets; Acetaminophen Ultra Relief Extra Strength; Acetaminophen W Codeine Tab; Acetaminophen With Antihistamine Nighttime; Acetaminophen With Codeine - Caplet; Acetaminophen and Codeine; Acetaminophen and Codeine Phosphate; Acetaminophen and Diphenhydramine HCl; Acetaminophen and Diphenhydramine Hydrochloride; Acetaminophen for Adults; Acetaminophen for Children; Acetaminophen infants; Acetaminophen junior strength; Acetaminophen, Butalbital and Caffeine; Acetaminophen, Caffeine & 8mg Codeine Phosphate; Acetaminophen, Caffeine & 8mg Codeine Phosphate Tablets; Acetaminophen, Caffeine & Codeine; Acetaminophen, Caffeine & Codeine Tablets; Acetaminophen, Caffeine and 8 Mg Of Codeine Phosphate Tablets; Acetaminophen, Caffeine and Dihydrocodeine Bitartrate; Acetaminophen, Caffeine, Dihydrocodeine Bitartrate; Acetaminophen, Caffeine, and 8mg Of Codeine Phosphate Tablets; Acetaminophen, Chlorpheniramine Maleate, Dextromethorphan Hydrobromide, Phenylephrine Hydrochloride; Acetaminophen, Chlorpheniramine Maleate, Phenylephrine Hydrochloride; Acetaminophen, Dextromethorphan Hydrobromide, Guaifenesin, Phenylephrine Hydrochloride; Acetaminophen, Dextromethorphan Hydrobromide, Phenylephrine Hydrochloride; Acetaminophen, Diphenhydramine Hydrochloride; Acetaminophen, Diphenhydramine Hydrochloride, Phenylephrine Hydrochloride; Acetaminophen, Diphenhydramine Hyhrochloride, Phenylephrine Hydrochloride; Acetaminophen, Guaifenesin, Phenylephrine Hydrochloride; Acetaminophen, Phenylephrine Hydrochloride; Acetaminophen,Dextromethorphan,Doxylamine; Acetaminophen,Dextromethorphan,Phenylephrine; Acetaminophen-APAP 8 Hour; Acetaminophen-caffeine-codeine; Acetaminophen-odan Tablets 325mg; Acetaminophen-odan Tablets 500mg; Acetaminophen/dextromethorphan/pseudoephedrine; Acetaminophen/pseudoephedrine/dextromethorphan/doxylamine; Acetaminophene; Acetaminophene - Liq 160 Mg/5 Ml; Acetaminophene - Liq 80 mg/ml; Acetaminophene 160mg Comprimes A Croquer; Acetaminophene 160mgco.croquable Pour Enfant; Acetaminophene 325 Tab; Acetaminophene 325tab; Acetaminophene 500 Tab; Acetaminophene 500tab; Acetaminophene 80 Pour Enfants Tab; Acetaminophene 80mg Comprimes A Croquer; Acetaminophene 80mgco.croquable Pour Enfant; Acetaminophene Codeine Et Cafeine Caplets; Acetaminophene Codeine Et Cafeine Fort; Acetaminophene Comprimes 160mg; Acetaminophene Comprimes Croquables 160mg; Acetaminophene Extra-fort; Acetaminophene Regulier 325mg - Tab; Acetazone Forte; Acetazone Forte C8; Act Tramadol/acet; Actidogesic; Actifed PE Plus; Actifed Plus Caplet; Actifed Plus Caplets; Acétaminophène 500 Mg Comprime; Acétaminophène Blason Shield 500; Acétaminophène Caplet 325; Acétaminophène Caplet 500; Acétaminophène Comprimé Tablet 325; Acétaminophène Comprimé Tablet 500; Added Strength PM; Added Strength Pain Reliever; Adult Cold, Flu and Sore Throat; Adult Extra Strength Pain Relief; Adult Pain Reliever/Fever Reducer; Adults Acetaminophen and Caffeine Pain Reliever Fever Reducer; Advanced Pain Reliever; Alka-Seltzer Plus Cold and Cough; Alka-Seltzer Plus Cold and Cough Formula; Alka-Seltzer Plus Day Cold and Flu; Alka-Seltzer Plus Day Non-Drowsy Cold and Flu Formula; Alka-Seltzer Plus Day Severe Cold Plus Flu; Alka-Seltzer Plus Day Severe Cold, Cough And Flu; Alka-Seltzer Plus Day and Night Cold and Flu Formula; Alka-Seltzer Plus Day and Night Severe Cold and Flu; Alka-Seltzer Plus Fast Crystals Packs Cold Formula; Alka-Seltzer Plus Fast Packs Cold and Flu Formula; Alka-Seltzer Plus Flu Formula; Alka-Seltzer Plus Maximum Strength Cold and Cough; Alka-Seltzer Plus Maximum Strength Cold and Cough Liquid Gels with Cool Menthol Flavor Liquid Gels; Alka-Seltzer Plus Maximum Strength Day Cold and Flu; Alka-Seltzer Plus Maximum Strength Day and Night Cold and Flu; Alka-Seltzer Plus Maximum Strength Night Cold and Flu; Alka-Seltzer Plus Maximum Strength Severe Sinus Congestion and Cough Day and Night; Alka-Seltzer Plus Maximum Strength Severe Sinus, Allergy and Cough; Alka-Seltzer Plus Multi-Smptom Cold and Flu Night; Alka-Seltzer Plus Multi-Symptom Cold and Flu Day Liquid Gels; Alka-Seltzer Plus Multi-Symptom Cold and Flu Day and Night Liquid Gels; Alka-Seltzer Plus Night Cold and Flu Formula; Alka-Seltzer Plus Night Severe Cold and Flu; Alka-Seltzer Plus Night Severe Cold, Cough And Flu; Alka-Seltzer Plus Severe Allergy Sinus Congestion And Headache Formula; Alka-Seltzer Plus Severe Cold And Flu Formula; Alka-Seltzer Plus Severe Cold and Cough Night; Alka-Seltzer Plus Severe Cold, Mucus and Congestion; Alka-Seltzer Plus Severe Cough Mucus and Congestion Day and Night; Alka-Seltzer Plus Severe Cough Mucus and Congestion Liquid Gels; Alka-Seltzer Plus Severe Sinus Cold and Cough Liquid Gels; Alka-Seltzer Plus Severe Sinus Congestion and Cough; Alka-Seltzer Plus Severe Sinus Congestion and Cough Day and Night; Alka-Seltzer Plus Severe Sinus Congestion and Cough Liquid Gels; Alka-Seltzer Plus Severe Sinus Congestion and Cough Liquid Gels Day; Alka-Seltzer Plus Severe Sinus Congestion and Cough Liquid Gels Night; Alka-Seltzer Plus Severe Sinus Congestion, Allergy and Cough; Alka-Seltzer Plus Severe Sinus and Cold; Alka-Seltzer Plus Sore Throat Relief Cool Menthol Flavor; Alka-Seltzer Plus Sore Throat Relief Cool Mint Flavor; Alka-Seltzer Plus Sore Throat Relief Honey Lemon Flavor; Alka-Seltzer Plus-D Multi-Symptom Sinus and Cold; All Nite; All-Nite Cold and Flu; Allergie Extra Fort; Allergy; Allergy + Sinus Relief Extra Strength Tablets; Allergy + Sinus Relief Extra Strength Tablets PE; Allergy + Sinus Relief Regular Caplets; Allergy Multi Symptom; Allergy Multi-Symptom; Allergy Pain Relief; Allergy Plus Severe Sinus Headache; Allergy Plus Sinus Headache; Allergy Relief; Allergy Relief Multi-Symptom; Allergy Relief Multisymptom; Allergy Relief Plus Sinus Headache; Allergy Severe; Allergy Sinus Headache Caplets; Allergy Sinus Medication; Allergy Sinus Medication  -  Caplet; Allergy Sinus Nighttime Relief; Allergy Sinus PE Pain Relief; Allergy and Cold; Allergy and Cold PE; Allergy and Cold Relief; Allergy and Cough; Allergy and Pain Relief Multi-Symptom; Allergy and Sinus Headache; Allergy and Sinus Headache Relief Complete; Allergy and Sinus Relief Extra Strength; Allergy, Sinus and Headache Relief Medication; Allpanto S; Allzital; Alsiphene Forte Tab 500mg; Anacin AF; Anacin Aspirin Free; Apap; Apap (acetaminophen 325mg); Apap Extra Strength; Aphen; Apinophen Extra Strength; Apo Acetaminophen Tab 325mg; Apo Acetaminophen Tab 500mg; Apo-acetaco #1; Apo-acetaminophen Caplets 325mg; Apo-acetaminophen Caplets 500mg; Apo-oxycodone/acet; Apo-tramadol/acet; Ara Menstrual Complete; Arthriten Inflammatory Pain Formula; Arthriten Max; Arthritis 8 Hour; Arthritis Pain; Arthritis Pain Extended Relief; Arthritis Pain Relief; Arthritis Pain Relief Temporary Minor; Arthritis Pain Reliever; Aspirin Free; Aspirin Free Cold Head Congestion Day Time; Aspirin Free Pain Relief; Aspirin free; Assured Headache PM (Aspirin Free); Assured Maximum Strength Mucus Relief; Assured Regular Strength Acetaminophen; Atasol 15; Atasol 30; Atasol 325 Mg Tablets; Atasol 325mg Caplets; Atasol 8; Atasol Drops USP 80mg/ml; Atasol Forte Cap 500 mg; Atasol Forte Tab 500mg; Atasol Liq 80mg/5ml; Atasol Tab 325mg; Auro Mucus - Childrens Cold, Cough and Sore Throat; Auro-tramadol/acetaminophen; AuroFlu Day Time Severe Cold and Cough Warming Relief; AuroFlu Flu and Sore Throat Warming Relief; AuroFlu Night Time Severe Cold and Cough; AuroFlu Night Time Severe Cold and Cough Warming Relief; AuroMucus - Fast Maximum Cold and Sinus; AuroMucus - Fast Maximum Cold, Flu and Sore Throat Relief; AuroMucus Fast Maximum Night Time Cold and Flu; AuroQuil COLD and FLU Day Time Multi-Symptom Relief; AuroQuil COLD and FLU Nighttime Relief; AuroQuil Cold and Flu Nighttime Relief; AuroQuil Severe Cold and Flu Daytime Relief; AuroQuil Severe Cold and Flu Nighttime Relief; Auroflu Day Time Severe Cold and Cough; Aurophen - Adult Extra Strength Pain Reliever/Fever Reducer; Aurophen Childrens Pain and Fever; Aurophen Cold Multi Symptom; Aurophen Cold Multi-Symptom Severe; Aurophen Cold and Flu Severe; Aurophen Daytime Nighttime; Aurophen Extra Strength for Adults; Aurophen Infants Pain and Fever; Aurophen PM Extra Strength; Aurophen Pain Away plus Sleep aid; Aurophen Regular Strength; Auto 157; Axacet-C1/8; Aypanal; Aypanal EX; Aypanal Non-Aspirin; Babies R Us Childrens Pain Relief; Babies R Us Infants Pain Relief; Babies R Us Infants Pain and Fever; Babies R Us Pain and Fever; Back Relief; Back-aid Forte - Tab; BackAid Inflammatory Pain Formula; BackAid Max; Bactimicina Childrens Pain and Fever; Baczol Cold Medicine; Balminil Cough and Flu; Basic Care Acetaminophen; Basic Care Childrens Pain and Fever; Basic Care Nighttime; Basic Care acetaminophen; Bayer Migraine Formula; Bc Daytime Multi-symptom; Bc Sinus Congestion and Pain; Being Well Cold Flu Relief PM Multi Symptom; Being Well Cold and Flu Relief PM; Being Well Night Time Cold and Flu; Benadryl Allergy & Cold Caplets; Benadryl Allergy Rapid Release; Benadryl Allergy Sinus Caplets; Benadryl Allergy Sinus Headache; Benadryl PE Total Extra Strength; Benadryl PE Total Regular Strength; Benadryl Total; Benylin 1 Nightime With Menthactin; Benylin 1 With Menthactin; Benylin 4 Flu - Syrup; Benylin A-D Extra Strength Caplets; Benylin A-D Regular Strength Caplets; Benylin A-D-AH Extra Strength Caplets; Benylin A-D-AH Regular Strength Caplets; Benylin All-IN-one Cold & Flu Daytime; Benylin All-IN-one Cold & Flu Nighttime; Benylin All-IN-one Cold and Flu Extra Strength; Benylin All-IN-one Cold and Flu Extra Strength Syrup; Benylin All-IN-one Cold and Flu Liquid Gels; Benylin All-IN-one Cold and Flu Night Extra Strength; Benylin All-IN-one Cold and Flu Night Extra Strength Syrup; Benylin All-IN-one Cold and Flu Night PE Caplets; Benylin All-IN-one Cold and Flu PE Caplets; Benylin Cold & Sinus; Benylin Cold & Sinus Plus; Benylin Cold and Sinus Night; Benylin Cold and Sinus Night Caplets; Benylin DM-D-E-A Cold and Sinus Liquid Gels; Benylin Extra Strength All-IN-one Cold and Flu; Benylin Extra Strength All-IN-one Cold and Flu Nightime; Benylin Extra Strength All-IN-one Cold and Flu With Warming Sensation; Benylin Extra Strength Mucus & Phlegm Plus Cold Relief; Benylin Extra Strength Mucus & Phlegm Plus Cold Relief Night; Benylin for Children All-IN-one Cold & Fever; Benylin for Children All-IN-one Cold & Fever Nightime; Benylin for Children All-IN-one Cold and Fever; Berkley and Jensen Acetaminophen; Berkley and Jensen Arthritis Pain Relief; Berkley and Jensen Migraine Formula; Berkley and Jensen Migraine Relief; Berkley and Jensen Pain Relief; Berkley and Jensen Pain Relief Extra Strength; Berley and Jensen Pain Relief; Best Choice Daytime Severe Cold and Cough Berry infused with Menthol and Green Tea flavors; Best Choice Nighttime Severe Cold and Cough Honey Lemon infused with Chamomile and White Tea Flavors; Bf-paradac; Bi Electro Extra Strength; Biogesic; Bromaphen Child Elixir; Broncochem Cold and Flu Caplets; Broncochem Cold and Flu Tea; Broncochem Expectorant II; Broncochem Kids Cold and Flu; Broncolin Cold and Flu Relief; Broncomar; Broncomar EXPECTORANT; Buckley's Cold & Sinus Day; Buckley's Cold & Sinus Night; Buckley's Complete; Buckley's Complete Cough, Cold & Flu Day; Buckley's Complete Cough, Cold & Flu Night; Buckley's Complete Daytime Plus Mucus Relief Softgels; Buckley's Complete Daytime Softgels; Buckley's Complete Extra Strength Cough, Cold & Flu Day; Buckley's Complete Extra Strength Cough, Cold and Flu Night; Buckley's Complete Nighttime Softgels; Buckley's Complete PM - Nighttime; Buckley's Complete Plus Mucous Relief; Buckley's Complete Plus Mucous Relief Extra Strength; Buckley's Complete Relief; Buckley's Complete Relief + Mucus; Buckley's Daytime Cold and Sinus; Buckley's Nighttime Cold and Sinus; Buckley's Sinus Pain Relief Extra Strength Tablets; Bupap; Butalbital Acetaminophen and Caffeine; Butalbital And Acetaminophen; Butalbital and Acetaminophen; Butalbital and Acetaminophen 50 mg/325 mg; Butalbital, Acetaminophen and Caffeine; Butalbital, Acetaminophen and Caffeine Plus; Butalbital, Acetaminophen and Caffeine with Codeine Phosphate; Butalbital, Acetaminophen, Caffeine; Butalbital, Acetaminophen, Caffeine and Codeine Phosphate; Butalbital, Acetaminophen, Caffeine, and Codeine Phosphate; Butalbital, Acetaminophen, and Caffeine; Butalbital, Acetominophen and Caffeine; Butapap; CAREALL Non-Aspirin PM Extra Strength; COLD FLU and SORE THROAT RELIEF; COLD and FLU DAYTIME MAXIMUM STRENGTH NON-DROWSY SEVERE; COLD and FLU Day Time Multi-Symptom Relief; COLD and FLU Nighttime Relief; COLDTAC Plus; COMTREX Maximum Strength Day / Night Severe Cold and Sinus; CVS - Childrens Mucus Relief Cough, Cold and Sore Throat; CVS Daytime COLD and FLU RELIEF and Nighttime COLD and FLU RELIEF; CVS Daytime Severe Cough and Cold; CVS Health Medication and Topical Refill Pouch; CVS Health Multi Symptom Severe Cold MULTI SYMPTOM SEVERE COLD; CVS Health Nighttime Cold and Flu Relief Single Serve Cups Cold and Flu Nighttime Relief; CVS Health Nighttime Severe Cough and Cold Nighttime Severe Cold and Cough; CVS Health Non-Drowsy Daytime Cold and Flu Relief Single Serve Cups Daytime; CVS Nighttime Cold/Flu Relief; CVS Pharmacy Cold and Sore Throat Lemon Flavor; CVS Pharmacy Daytime Severe Cough and Cold Berry infused with Menthol and Green Tea flavors; CVS Pharmacy Nighttime Severe Cough and Cold honey lemon infused with chamomile and white tea flavors; CVS cough and severe cold night time honey lemon infused with chamomile and white tea flavors; CVS day time cough and severe cold berry infused with menthol and green tea flavors; Calmadol Childrens; Calmadol Plus; Calmylin Cough and Flu Liq; Capacet; Capital and Codeine; Care One Acetaminophen; Care One Arthritis Pain Relief; Care One Cold Head Congestion; Care One Cold Head Congestion daytime non-drowsy; Care One Cold Multi Symptom; Care One Cold Mutli Symptom; Care One Flu and Severe Cold Daytime; Care One Flu and Severe Cold and Cough Daytime; Care One Flu and Severe Cold and Cough Nighttime; Care One Flu and Sore Throat; Care One Pain Relief; Care One Pain Relief 8 Hour; Care One Pain Relief Childrens; Care One Pain Relief Infants; Care One Pain Relief PM Extra Strength; Care One Pain Relief and Pain Relief PM; Care One Pain Relief extra strength; Care One Sinus Congestion and Pain; Care One arthritis pain relief temporary minor; Care One cold head congestion; Care One headache relief added strength; Care One migraine relief; Care One pain relief extra strength; CareALL Acetaminophen; CareALL Acetaminophen Extra Strength; CareALL Non Aspirin Extra Strength; CareOne 8 Hour Pain Relief; CareOne Acetaminophen; CareOne Acetaminophen PM; CareOne Childrens Acetaminophen; CareOne Childrens Pain and Fever; CareOne Cold Flu and sore throat; CareOne Cold and Cough; CareOne Cold and Sinus; CareOne Cold plus Flu Severe; CareOne Day Time Severe Cold Night Time Cold and Flu; CareOne DayTime Cold and Flu; CareOne Daytime Cold Flu Relief; CareOne Daytime Nighttime Cold Flu Relief; CareOne Daytime Nighttime Cold and Flu; CareOne Daytime Severe Cold and Cough Berry infused with Menthol and Green Tea flavors; CareOne Infants Acetaminophen; CareOne Mucus Relief; CareOne Mucus Relief Cold and Sinus; CareOne Mucus Relief Severe Congestion and Cold; CareOne Night TIme Cold and Flu; CareOne Nighttime Cold and Flu; CareOne Nighttime Severe Cold and Flu; CareOne Nitetime Cold Flu Relief; CareOne Nitetime Severe Cold Flu Relief; CareOne Pain Relief; CareOne Pain Relief Pain Relief PM; CareOne Severe Cold; CareOne Sinus Plus Headache; CareOne Sinus Relief Severe; CareOne Sinus plus Headache; Careone Allergy and Cough Severe Sinus Congestion; Careone Childrens Acetaminophen; Careone Childrens Pain and Fever; Careone Cold Max; Careone Day Severe Cold Night Cold and Flu; Careone Daytime Severe Cold Flu Relief; Careone Infants Pain Relief; Careone Pain Relief; Careone Pain Relief Infants; Careone Pain Relief PM; Careone Severe Sinus Congestion; Careone Severe Sinus Congestion and Pain; Careone daytime severe cold and flu; Careone night time severe cold and cough honey lemon infused with chamomile and white tea flavors; Cephanol 160mg Caplet; Cetafen; Cetafen Extra; Chewable Acetaminophen Childrens; Children Feverhalt Drops 80mg/ml; Children Pain Relief For Ages 2 to 11; Children's Acetaminophen 80 mg; Children's Acetaminophen 80mg Chewable Tablets USP; Children's Acetaminophen Chewable Tabs 160mg; Children's Acetaminophen Chewable Tabs 80mg; Children's Acetaminophen Dps 80mg/ml; Children's Acetaminophen Dye-free; Children's Acetaminophen Easymelt Tablets; Children's Acetaminophen Elixir; Children's Acetaminophen Elixir U.S.P. 160mg/5ml; Children's Acetaminophen Elixir-80mg/ml; Children's Acetaminophen Elx 160mg; Children's Acetaminophen Oral Soln 160mg/5ml; Children's Acetaminophen Oral Solution Double Strength; Children's Acetaminophen Oral Solution USP; Children's Acetaminophen Suspension; Children's Acetaminophen Suspension (160mg/5ml - Bubblegum Flavour); Children's Acetaminophen Suspension (160mg/5ml - Cherry Flavour); Children's Acetaminophen Syr 80ml/5ml; Children's Acetaminophen Syrup 160mg/5ml; Children's Acetaminophen Tablets; Children's Allergy and Sinus Medication Liquid Suspension; Children's Chewable Acetaminophen 80mg Tablets; Children's Chewable Acetaminophen Tab 160 mg; Children's Chewable Acetaminophen Tab 80 mg; Children's Chewable Acetaminophen Tab 80mg; Children's Chewable Acetaminophen Tablet; Children's Chewable Acetaminophen Tablets (80mg - Bubblegum Flavour); Children's Chewable Acetaminophen Tablets (80mg - Fruit Splash Flavour); Children's Chewable Acetaminophen Tablets (80mg - Grape Flavour); Children's Chewable Acetaminophen Tablets 80mg; Children's Chewable Acetaminophen Tablets USP Double Strength; Children's Coltalin Fruit Flavor Chewable Cold Tablets; Children's Duofen; Children's Fever From Colds Or Flu; Children's Feverhalt   (160mg Chewable Tablets); Children's Feverhalt   (80mg Chewable Tablets); Children's Feverhalt Syrup; Children's Little Remedies for Fevers; Children's Meltables; Children's Nonspil Acetaminophen Syrup 160mg/5ml; Children's Sinus Medication Liquid Suspension; Children's Tempra Tablets; Children's Tylenol; Children's Tylenol Acetaminophen Sus Liq; Children's Tylenol Allergy - D Chewable Tablets; Children's Tylenol Allergy-D Suspension; Children's Tylenol Chewable Tablets; Children's Tylenol Chewable Tablets Bbg.fl.; Children's Tylenol Chewables; Children's Tylenol Cold; Children's Tylenol Cold & Stuffy Nose; Children's Tylenol Cold Chewable Tablets; Children's Tylenol Cold Liquid; Children's Tylenol Cold Liquid With DM; Children's Tylenol Cold Suspension; Children's Tylenol Cold and Cough; Children's Tylenol Cold and Cough Nighttime; Children's Tylenol Complete Cold, Cough & Fever; Children's Tylenol Complete Cold, Cough & Fever Nighttime; Children's Tylenol Cough and Runny Nose; Children's Tylenol Decongestant; Children's Tylenol Decongestant - Tab; Children's Tylenol Fastmelts; Children's Tylenol Fever & Sore Throat Pain; Children's Tylenol Sinus Chewable Tablet; Children's Tylenol Sinus Suspension; Children's Tylenol Sus 160mg/5ml Liq-grape; Childrens ACCUDIAL Pain reliever/ Fever reducer; Childrens Accudial Pain reliever/ Fever reducer; Childrens Acetaminophen; Childrens Acetaminophen Cherry; Childrens Acetaminophen Liquid; Childrens Acetaminophen Melts; Childrens Acetaminophen Oral Grape Flavor; Childrens Acetaminophen Oral Suspension Grape Flavor; Childrens Acetaminophen Pain Relief; Childrens Aspirin Free Rapid Tabs; Childrens Chewable; Childrens Chewable Acetaminophen; Childrens Chewable Acetaminophen Tab 80mg USP; Childrens Chewable Mapap; Childrens Chewable Pain Reliever; Childrens Chewables; Childrens Cold, Cough and Sore Throat; Childrens Coltalin; Childrens Cough Plus Sore Throat; Childrens Delsym Cough Plus Cold Day Time; Childrens Delsym Cough Plus Cold Night Time; Childrens Dimetapp Multi-Symptom Cold and Flu; Childrens Dimetapp Multisymptom Cold and Flu; Childrens Fever Reducer; Childrens Fever Reducer and Pain Reliever; Childrens Flu Relief; Childrens MAPAP; Childrens MAPAP Acetaminophen; Childrens Mapap; Childrens Mucinex Cold, Cough and Sore Throat; Childrens Mucinex Multi Symptom Cold and Childrens Mucinex Night Time Multi Symptom Cold; Childrens Mucinex Multi-Symptom Cold and Fever; Childrens Mucinex Night Time Multi-Symptom Cold; Childrens Multi Symptom Fever and Cold; Childrens Multi-Symptom Cold Plus Dye-Free; Childrens Multi-Symptom Cold and Fever Relief; Childrens Nanomol Dye-Free Cherry; Childrens Non Aspirin; Childrens Nortemp; Childrens Pain Relief; Childrens Pain Relief Acetaminophen; Childrens Pain Relief Dye-Free; Childrens Pain Relief Plus Cough and Sore Throat; Childrens Pain Relief ReadyInCase; Childrens Pain Reliever; Childrens Pain Reliever Grape Flavor; Childrens Pain and Fever; Childrens Pain and Fever Acetaminophen; Childrens Pain and Fever Fast Dissolving; Childrens Pain and Fever Lil Drug Store Products; Childrens Plus Cold; Childrens Plus Cold Grape; Childrens Plus Cough and Runny Nose; Childrens Plus Cough and Sore Throat; Childrens Plus Flu; Childrens Plus Flu with PE; Childrens Plus Multi Symptom Cold; Childrens Plus Multi Symptom Cold DYE FREE; Childrens Plus Multi Symptom Cold Dye Free; Childrens Plus Multi-Symptom Cold Grape with PE; Childrens Plus Multi-Symptom Grape with PE; Childrens Plus Multi-Symptom with PE; Childrens QPAP; Childrens Rapid Melts; Childrens Silapap; Childrens TYLENOL; Childrens TYLENOL COLD PLUS COUGH PLUS SORE THROAT; Childrens TYLENOL COLD Plus FLU; Childrens TYLENOL COLD plus COUGH plus RUNNY NOSE; Childrens Tukol Acetaminophen Fever Reducer Pain Reducer; Childrens Tukol Multi-Symptom Cold and Flu; Childrens Tussnex; Childrens Tylenol; Childrens pain and fever; Chloresin; Circle K Cold; Circle K Daytime Cold and Flu; Circle K Headache Relief; Circle K Headache Relief Extra Strength; Circle K Multi-Symptom Sinus Relief; Circle K Nighttime Cold and Flu; Circle K Pain Reliever; Circle K Pain Reliever Extra Strength; Citramon; Citron Chaud Cumberland Pws; Citron Chaud Extra Fort; Clear Choice Extra Strength Pain Reliever; Clear Choice Regular Strength Pain Reliever; ClearTime; Cleartime; Cold; Cold & Cough; Cold & Cough Extra Strength; Cold & Flu; Cold & Flu Daytime; Cold & Flu Nighttime; Cold & Flu Relief Nighttime; Cold & Flu Super Strength; Cold & Flu-IN-one; Cold & Sinus Liquid Capsules; Cold & Sinus Liquid Fastgels; Cold Chest Congestion PE Regular Strength; Cold DayTime, Multi-Symptom, Non-drowsy; Cold Daytime; Cold Flu Relief; Cold Flu Relief Daytime; Cold Flu and Sore Throat; Cold Flu and Sore Throat Maximum Strength; Cold Flu and Sore Throat Relief Maximum Strength; Cold Formula Daytime Nighttime, Non-Aspirin, Multi-Symptom; Cold Head Congestion; Cold Head Congestion Daytime; Cold Head Congestion Daytime / Nighttime; Cold Head Congestion Daytime Non-Drowsy; Cold Head Congestion Night Time; Cold Head Congestion Nighttime; Cold Head Congestion Non-Drowsy; Cold Head Congestion Severe; Cold MULTI-SYMPTOM, DAYTIME / NIGHTTIME; Cold Max Nighttime; Cold Medication; Cold Medication Daytime Relief; Cold Medication Extra Strength Daytime; Cold Medication Extra Strength Night Time; Cold Medication Reg Strength D Tab; Cold Medication Reg Strength N Tab; Cold Medication Regular Nighttime Tablets; Cold Medication Regular Nighttime Tablets PE; Cold Medicine; Cold Medicine XL-3 for Children; Cold Medicine XL3; Cold Medicine XL3 FORTE; Cold Multi Symptom; Cold Multi Symptom Daytime Nighttime; Cold Multi Symptom Nighttime; Cold Multi Symptom Relief; Cold Multi Symptom Severe; Cold Multi-Symptom; Cold Multi-Symptom Day-time; Cold Multi-Symptom Daytime; Cold Multi-Symptom Daytime Nighttime; Cold Multi-Symptom Daytime Non-Drowsy; Cold Multi-Symptom Daytime and Nighttime; Cold Multi-Symptom Night-time; Cold Multi-Symptom Nighttime; Cold Multi-Symptom Non-Drowsy, Daytime; Cold Multi-Symptom Severe; Cold Multi-Symptom Severe Day Time; Cold Multi-Symptom, Daytime; Cold PE; Cold Pain Relief; Cold Preparation; Cold Preparation For Cough and Sinus Relief; Cold Relief; Cold Relief Cold and Flu Severe; Cold Relief Daytime; Cold Relief Daytime Tablet; Cold Relief Duo Pack; Cold Relief Head Congestion; Cold Relief Head Congestion Daytime Non-Drowsy; Cold Relief Head Congestion Severe; Cold Relief Maximum Strength / Day Time; Cold Relief Multi Symptom; Cold Relief Multi Symptom Nighttime; Cold Relief Multi Symptom Severe; Cold Relief Multi-Symptom; Cold Relief Multi-Symptom Daytime; Cold Relief Multi-Symptom Severe; Cold Relief Multi-Symptom, Daytime, Nighttime, Non-drowsy; Cold Relief Multi-symptom; Cold Relief Multi-symptom Daytime; Cold Relief Multi-symptom, Daytime; Cold Relief Nightime Tablet; Cold Relief Non Drowsy; Cold Relief Severe; Cold Relief Severe Head Congestion; Cold Relief Severe Pain Cough; Cold Relief Severe, Multi-symptom; Cold Remedy Gan Mao Ling; Cold Remedy Soothing; Cold Stix; Cold Stix - Hot Lemon, Sugar-free; Sweetened With Xylitol; Cold Stix Super Strength; Cold Stix-extra Strength; Cold Stix-regular Strength; Cold Tabs II; Cold Terminator Max; Cold and Chest Congestion Relief; Cold and Cough; Cold and Cough Daytime; Cold and Cough MULTI-SYMPTOM DAYTIME / NIGHTTIME; Cold and Cough Nighttime; Cold and Cough Nighttime Cool Blast; Cold and Cough PE; Cold and Cough Relief Extra Strength; Cold and Flu; Cold and Flu BP; Cold and Flu Capsules; Cold and Flu Day Night; Cold and Flu DayTime; Cold and Flu DayTime, NightTime Severe; Cold and Flu Daytime; Cold and Flu Daytime Nighttime; Cold and Flu Daytime Relief; Cold and Flu Daytime Severe, Nighttime Severe; Cold and Flu Daytime, Nighttime, Maximum Strength; Cold and Flu Daytime, Nighttime, Multi-Symptom; Cold and Flu Daytime/Multi-Symptom/Non-Drowsy; Cold and Flu Extra Strength Day; Cold and Flu HBP; Cold and Flu Medicine - Day Time Formula; Cold and Flu Medicine - Night Time Formula; Cold and Flu Multi-Symptom Daytime Nighttime; Cold and Flu Multi-Symptom Nighttime Severe; Cold and Flu Nighttime; Cold and Flu Nighttime D; Cold and Flu Nighttime Multi Symptom; Cold and Flu Nighttime Multi-symptom; Cold and Flu Nighttime Relief; Cold and Flu Nighttime Relief Syrup Extra Strength; Cold and Flu Nighttime/Multi-Symptom; Cold and Flu Non-Drowsy, DayTime; Cold and Flu Non-Drowsy, Daytime; Cold and Flu Plus; Cold and Flu Relief; Cold and Flu Relief DayTime; Cold and Flu Relief Daytime; Cold and Flu Relief Daytime Multi Symptom; Cold and Flu Relief Daytime Nighttime; Cold and Flu Relief Daytime Non Drowsy; Cold and Flu Relief Daytime, Multi-Symptom; Cold and Flu Relief Hbp Maximum Strength Multi-symptom; Cold and Flu Relief Multi Symptom Nighttime; Cold and Flu Relief Multi symptom; Cold and Flu Relief Multi-Symptom; Cold and Flu Relief Multi-Symptom, Day, Night; Cold and Flu Relief Multi-Symptom, Nighttime; Cold and Flu Relief NightTime, Multi-symptom; Cold and Flu Relief Nighttime; Cold and Flu Relief Nighttime Multi Symptom; Cold and Flu Relief Nighttime, Multi-Symptom; Cold and Flu Relief Non-Drowsy / Daytime Severe / Nighttime Severe; Cold and Flu Relief Non-Drowsy, DayTime, Multi-Symptom; Cold and Flu Relief Severe; Cold and Flu Severe; Cold and Flu Severe Day Time / Night Time; Cold and Flu Severe, Nighttime, Maximum Strength; Cold and Flu severe; Cold and Flu-IN-one Extra Strength; Cold and Flu-IN-one Regular Strength; Cold and Head Congestion Relief Severe; Cold and Head Congestion Severe; Cold and Head Congestion Severe/Daytime; Cold and Nasal Congestion Relief Nighttime Extra Strength; Cold and Nasal Congestion Relief Super Strength; Cold and Sinus; Cold and Sinus Complete Liquid Gels; Cold and Sinus Daytime Relief; Cold and Sinus Maximum Strength; Cold and Sinus Maximum Strength, Multi-Symptom; Cold and Sinus Maxium Strength; Cold and Sinus Nighttime Relief; Cold and Sinus PE Pressure, Pain and Cold Non-Drowsy; Cold and Sinus Pain Relief; Cold and Sinus Relief Combo; Cold relief; Cold, Flu and Sore Throat; Cold, Flu and Sore Throat Maximum Strength; Cold, Flu and Sore Throat Maximum Strength, Multi-Symptom; Cold, Flu and Sore Throat Maxium Strength; Cold, Flu and Sore Throat Relief Maximum Strength, Multi Symptom; Cold, Flu, and Sore Throat; Cold,sore Throat Pain & Cough Ultra Strength; Cold-EEZE Childrens Nighttime Cold and Cough Relief; Cold-EEZE Daytime Cold and Flu; Cold-EEZE Nighttime Cold and Flu; Cold-Flu Relief Multi Symptom; Cold/Flu Multi-Symptom Relief Daytime/Nighttime; Cold/flu Medicine; Cold/flu Relief; Coldaside Cold; Coldaside Cold & Flu Extra Strength; Coldtac Ultra; Coltalin; Coltalin Cold & Allergy Tablets; Coltalin-DM; Coltalin-ND; Comfort-Time; Complete; Complete Allergy and Sinus Multi Symptom; Complete Daytime; Complete Daytime Liquid Capsules; Complete Liquid Capsules; Complete Liquid Capsules Nighttime Relief; Complete Menstrual Relief; Complete One Cold and Flu Extra Strength; Complete One Cold and Flu Extra Strength Tablets; Complete One Cold and Flu Nightime Extra Strength Liquid; Complete One Cold and Flu Nightime Extra Strength Tablets; Complete One Cold and Flu PE Night; Comtrex Cough and Cold Day/Night; Comtrex Maximum Strength Cold and Cough Non-drowsy; ConRX DayTime; ConRX Pain Reliever Sinus Headache; ConRx Allergy Sinus; ConRx Allergy Sinus Multi-Symptoms; ConRx Cold; ConRx Extra Strength; ConRx NightTime; ConRx PM; ConRx Sinus; ConRx pain Reliever; Congestion and Headache; Contac Cold; Contac Cold & Sinus Extra Strength; Contac Cold & Sinus Hot Medicated Drink; Contac Cold Chest Congestion; Contac Cold Nasal Congestion; Contac Cold Nasal Congestion-nighttime; Contac Cold Nasal Congestion-non Drowsy Regular Strength; Contac Cold and Fever Caplets; Contac Cold and Flu Cooling Relief; Contac Cold and Flu Day; Contac Cold and Flu Day Night; Contac Cold and Flu Maximum Strength; Contac Cold and Flu Night; Contac Cold and Sore Throat Caplets; Contac Complete Cough, Cold & Flu Syrup; Contac Cough  Cold and Flu Caplets; Contac Cough and Sore Throat Syrup; Contac Day & Night Sinus/allergy Caplet; Contac Night Caplets; Contac Night Cough Syrup; Contac-C Ext.stren.night Time Cough,cold&flu; Copanto; Core Values Night Time Relief; Core Values Pain and Fever; Coricidin Cold & Flu; Coricidin Cold & Flu Extra Strength; Coricidin Cold & Flu Multi-symptom; Coricidin D Flu, Nasal and Sinus; Coricidin HBP Cold and Flu; Coricidin HBP Day and Night; Coricidin HBP Maximum Strength Flu; Coricidin HBP Nighttime Multi-Symptom Cold; Coricidin II Night Time Cold and Flu; Coricidin Sinus Headache Tab; Corytab; Cotabs; Cough; Cough Cold and Sore Throat Childrens; Cough Multi Symptom; Cough Syrup DM Decongestant and Expectorant With Acetaminophen; Cough Syrup DM Decongestant and Expectorant With Acetaminophen Extra Strength; Cough Syrup DM-D-E With Acetaminophen; Cough Syrup DM-D-E With Acetaminophen Extra Strength; Cough and Cold Medication Menthol Flavour; Cough and Cold XL3 Xtra; Cough and Cold plus; Cough and Flu Syrup; Cough and Runny Nose Childrens Plus; Cough and Sinus PE Pressure, Pain and Cough Non-Drowsy; Cough and Sore Throat Childrens; Cough and Sore Throat Childrens Pain Relief; Cough and Sore Throat Childrens Plus; Cough and Sore Throat Daytime; Cough and Sore Throat Multi Symptom; Cough and Sore Throat Nighttime; Cough and Sore Throat Non Drowsy; Cough and Sore Throat Pain Relief; Cough, Cold & Flu; Cough, Cold & Flu Super Strength; Cough, Cold and Flu Daytime Caplets; Cough, Cold and Flu Nightime Caplets; Cough, Cold and Flu Relief Complete Night Super Strength; Cough, Cold and Flu Relief Day Super Strength; CounterAct Childrens Pain Reliever; CounterAct Day; CounterAct Night; CounterAct PM; CounterAct Pain; Counteract Acetaminophen E-S; Counteract Kids Acetaminophen; Counteract Sinus and Allergy; Cramp Tabs; Cvs Effervescent Pain Relief PM; D - Time; D Time Sinus; DAY Cold and Flu Plus and NIGHTTIME Cold and Flu Plus; DAY TIME COLD and FLU FORMULA; DAY TIME Cold Flu Medicine; DAY TIME and NIGHT TIME COLD and FLU FORMULA; DAYTIME COLD and FLU; DAYTIME SEVERE COLD and COUGH NIGHTTIME SEVERE COLD and COUGH; DDM Day time and Nite time cold and flu; DG Day Time Cold and Flu Formula and Night Time Cold and Flu Formula; DG Health 8 Hour Pain Relief; DG Health Childrens Pain and Fever; DG Health Cold Head Congestion; DG Health Cold Max; DG Health Cold and Flu Relief; DG Health Cold and Flu Relief Daytime; DG Health Fast Acting Mucus Relief Severe Cold; DG Health Fast Acting Mucus Relief Severe Congestion and Cold; DG Health Mucus Relief; DG Health Pain Relief; DG Health Pain Relief Cold Night Time; DG Health Pain Reliever; DG Health Tussin; DG Health cold and flu relief; DG Health cold multi symptom nite time; DG Health cold multi symptom severe; DG Health migraine relief; DG health allergy multi symptom; DG health childrens pain relief; DS Never Cold S; Day & Night Combo Pack; Day Night Cold and Flu; Day Relief Cold and Flu Liquid Capsules; Day Relief Night Relief Free; Day Relief Night Relief Sinus PE; Day Relief PE; Day Relief Sinus PE; Day Severe Cold Night Cold and Flu; Day Severe Cold and Night Cold and Flu Maximum Strength; Day Time; Day Time COLD and FLU non-drowsy; Day Time Cold Flu Relief; Day Time Cold Head Congestion Severe; Day Time Cold Multi-Symptom; Day Time Cold Multi-Symptom Cool Blast; Day Time Cold and Flu; Day Time Cold and Flu Multi-Symptom Relief; Day Time Cold and Flu Non Drowsy ReadyInCase; Day Time Cold and Flu Relief; Day Time Cold and Flu Relief non drowsy; Day Time Cold and Flu Severe; Day Time Cold and Flu cold and flu multi symptom relief; Day Time Cold and Flu non drowsy; Day Time Cold and FlueNon drowsy Non drowsy; Day Time Cold non drowsy cold and Flu Relief; Day Time Cold/Flu Relief; Day Time Gelcap; Day Time Liquid Caps; Day Time Multi Symptom Relief; Day Time Multi-Symptom Cold/Flu Relief; Day Time Multi-Symptom Flu Cold Medicine; Day Time Night Time; Day Time Night Time Cold and Flu; Day Time Night Time Sinus Relief; Day Time Non Drowsy; Day Time PE cold and flu relief; Day Time Relief; Day Time Relief Extra Strength; Day Time Severe; Day Time Severe Cold and Cough; Day Time Sinus; Day Time Sinus Pain Reliever, Nasal Decongestant; Day Time Sinus Relief; Day Time Softgels; Day Time and Night Time Sinus and Congestion; Day Time with PE; Day and Night Cold; Day and Night Cold PE; Day and Night Cold and Flu Formula; Day and Night Sinus Maximum Strength; Day time cold and flu; Day-Time NON-DROWSY COLD/FLU RELIEF; Day-Time Night-Time; Day-time Cold and Flu; DayQuil Cold and Flu; DayQuil Severe; DayQuil Severe Cold and Flu; DayRelief Multi symptom; DayRelief NON DROWSY MULTI SYMPTOM COLD FLU; DayTime; DayTime Cold Flu Non Drowsy; DayTime Cold Flu Non-Drowsy; DayTime Cold and Flu; DayTime Cold and Flu Non Drowsy; DayTime Cold and Flu Relief; DayTime Cold and Flu Severe and NightTime Cold and Flu Severe; DayTime Maximum Strength Cold and Flu; DayTime Multi-Symptom; DayTime Multi-Symptom Flu Cold Medicine; DayTime NightTime Cold and Flu; DayTime NightTime Cold/Flu; DayTime NightTime Sinus Relief; DayTime Nighttime; DayTime Nighttime multi symptom cold and flu relief; DayTime Nite Time; DayTime NiteTime Cold Flu Relief; DayTime NiteTime Cold and Flu; DayTime Nitetime Sinus Relief; DayTime Nitetime cold and flu relief; DayTime Severe Cold and Flu Relief; DayTime Sinus; DayTime Sinus Relief; DayTime and NiteTime; DayTime/NiteTime Severe Cold and Flu Maximum Strength; Daycap Cold & Sinus Liquid Gels; Daycap Cold and Flu Liquid Gels; Daycap Sinus Liquid Gels; Dayquil Cold & Flu; Dayquil D; Dayquil Liquicaps; Dayquil Liquicaps  -  Cap; Dayquil Medicine - Liq; Dayquil Sinus Liquicaps; Dayrelief PE; Daytime; Daytime 325 Liqua Caps; Daytime Cold & Flu Liquid Capsules; Daytime Cold & Flu Relief; Daytime Cold Flu Relief; Daytime Cold Flu multi Symptom; Daytime Cold Medication Liquid Fastgels; Daytime Cold Relief Caplets; Daytime Cold Relief Extra Strength; Daytime Cold Relief Extra Strength Tablets; Daytime Cold Relief Extra Strength Tablets PE; Daytime Cold Relief Multi Symptom; Daytime Cold and Flu; Daytime Cold and Flu Circle K; Daytime Cold and Flu Lil Drug Store Products; Daytime Cold and Flu Liquid Capsules; Daytime Cold and Flu Multi symptom relief; Daytime Cold and Flu Non Drowsy; Daytime Cold and Flu Non drowsy; Daytime Cold and Flu Relief; Daytime Cold and Flu Relief Non Drowsy; Daytime Cold and Flu Relief Plus; Daytime Cold and Flu and Nighttime Cold and Flu; Daytime Cold and Flu relief; Daytime Cold and Pain Relief; Daytime Cold, Nighttime Cold multi-symptom; Daytime Cold/flu Medicine; Daytime Cold/flu Relief; Daytime Complete; Daytime Congestion Pressure and Pain; Daytime Congestion and Pain Sinus Relief; Daytime Cough; Daytime Cough. Cold. Flu Gel Capsules; Daytime Fast Severe Cold Relief Nitetime Fast Cold and Flu Relief; Daytime Flu Relief Extra Strength; Daytime Flu Relief Therapy; Daytime Flu Relief Therapy Severe Cough and Cold; Daytime Flu and Severe; Daytime Liqua Caps; Daytime Liquid - Liq; Daytime Mucus Relief Nighttime Cold and Flu; Daytime Multi-Symptom Cold Relief; Daytime Multi-Symptom Cold/Flu Relief; Daytime Multi-Symptom Non-Drowsy Cold and Flu; Daytime Multi-symptom Cold Relief; Daytime Nighttime; Daytime Nighttime ClearTime; Daytime Nighttime Cold Flu Relief; Daytime Nighttime Cold and Flu; Daytime Nighttime Cold and Flu Relief; Daytime Nighttime Cold and Flu Relief Multi-Symptom; Daytime Nighttime Cold/Flu; Daytime Nighttime Cold/flu; Daytime Nighttime Multi Symptom Cold Flu Relief; Daytime Nighttime Multi Symptom Cold and Flu Relief; Daytime Nighttime Severe Cold; Daytime Nighttime Severe Cold and Flu; Daytime Nighttime Severe Cold and Flu Relief; Daytime Nighttime Severe Cough and Cold; Daytime Nighttime Sinus Relief; Daytime Nighttime cold and flu relief; Daytime NiteTime; Daytime Nitetime; Daytime Nitetime Cold and Flu; Daytime Nitetime Sinus; Daytime Non Drowsy; Daytime Non-Drowsy COLD/FLU; Daytime PE; Daytime PE Nitetime; Daytime PE Non Drowsy; Daytime Relief Severe Cold and Flu; Daytime SEVERE COLD and FLU; Daytime Severe; Daytime Severe Cold Multi-symptom; Daytime Severe Cold and Cough; Daytime Severe Cold and Cough Relief; Daytime Severe Cold and Flu; Daytime Severe Cold and Flu Maximum Strength; Daytime Severe Cold and Flu Relief; Daytime Severe Cold and Flu Relief Maximum Strength; Daytime Sinus; Daytime Sinus Nighttime Sinus Maximum Strength; Daytime Sinus Non-Drowsy; Daytime Sinus Relief; Daytime Sinus Relief Extra Strength Tablet; Daytime Sinus Relief Extra Strength Tablets; Daytime Sinus Relief Extra Strength Tablets PE; Daytime Sinus Relief Non Drowsy; Daytime Sinus Relief and Nighttime Sinus Relief; Daytime Sinus and Congestion; Daytime Symptom Relief Extra Strength for Symptoms Of Cold and Cough; Daytime and Nighttime Cold and Flu; Daytime and Nighttime Cold and Flu Relief; Daytime and Nighttime Cold and Flu Relief Plus; Daytime and Nighttime Pain Relief; Daytime cold and flu non drowsy; Daytime cold and flu relief; Daytime sinus; Daytime sinus Non Drowsy; Daytime/Nighttime Cold and Flu Multi-Symptom Relief; Defensol D; Defensol D (Multi Symptom Effervescent Tablets); Defensolito; Delsym Cough Plus Cold Day Time; Delsym Cough Plus Cold Night Time; Delsym Night Time Multi-Symptom; Desenfriol-D; Dg Health Arthritis Pain Relief; Dg Health Childrens Pain and Fever; Dg Health Cold Head Congestion Severe Day Time; Dg Health Cold Plus Flu Relief; Dg Health Cold and Flu Relief; Dg Health Cold and Flu Relief Night Time; Dg Health Cold and Flu Relief Nite Time; Dg Health Cold and Flu Severe; Dg Health Cough and Sore Throat Nite Time; Dg Health Flu and Severe Cold and Cough; Dg Health Headache Relief Added Strength; Dg Health Headache Relief PM; Dg Health Infants Pain and Fever; Dg Health Mucus Relief; Dg Health Multi Symptom Severe Cold; Dg Health Night Time Cold and Flu Relief; Dg Health Pain Relief; Dg Health Pain Relief Childrens; Dg Health Pain Relief PM; Dg Health Pain Relief PM Extra Strength; Dg Health Pain Reliever; Dg Health Pain Reliever Extra Strength; Dg Health Sinus Congestion and Pain; Dg Health pain reliever; Diabetic Tussin Nighttime Cold and Flu; Dihydrocodeine Bitartrate, Acetaminophen and Caffeine; Dilotab; Dilotab II; Dimetapp Children's Cold & Fever; Dimetapp Cold & Sinus; Dimetapp Cough, Cold & Flu; Dimetapp Daytime Cold Caplets; Dimetapp Daytime Cold Extra Strength Caplets; Dimetapp Nighttime Cold Extra Strength Caplets; Dimetapp Nighttime Cold Tablets; Dimetapp Oral Infant Cold and Fever Drops; Direct Safety Aspirin Free; Direct Safety Extra Strength Aspirin Free; Dodd's Back-ease Muscle Spasm and Back Pain Relief; Dodd's Extra Strength Back-ease; Dolofin; Dolofin Infantil; Dologen; Dologen 325; Dologesic; Dologesic DF; Dologesic NF; Dom-acetaminophen Suppositories-120mg; Dom-acetaminophen Suppositories-325mg; Dometuss-G; Dometuss-NR; Double Strength Children Tempra Caplets 160mg; Double Strength Children Tempra Tab 160mg; Douleurs Musculaires Et Les Courbatures Extra Fort/muscle and Back Pain Relief Extra Strength; Dover Aminophen; Dover Coldonyl; Dristan Cold Multisymptom; Dristan Extra Strength Caplets; Dristan Nd Caplets; Dristan Non-drowsy Extra Strength Caplet; Dristan Tablets; Duraflu; Duralgina; Dye Free Childrens Acetaminophen; Dye Free Pain Reliever Childrens; Dye Free Pain and Fever Childrens; Dye-Free Childrens Acetaminophen Grape; Easy Care First Aid Kit - Comprehensive; Ed Apap; Emercidin D Tab; Emertabs Tab; Empracet-30; Empracet-60; Endocet; Ephed Plus Sinus; Equaline Acetaminophen; Equaline Acetaminophen Infants; Equaline Arthritis; Equaline Childrens Acetaminophen; Equaline Childrens Cold; Equaline Childrens Pain and Fever; Equaline Cold and Flu Relief; Equaline Daytime Cold Multi Symptom; Equaline Daytime Cold and Flu Relief; Equaline Daytime Nighttime Cold and Flu Relief; Equaline Daytime Severe Cold Fast Relief Nighttime Cold and Flu Fast Relief; Equaline Daytime Severe Cold and Flu Relief; Equaline Daytime and Nighttime Cold; Equaline Daytime and Nighttime Cold and Flu Relief; Equaline Flu and Severe Cold and Cough; Equaline Flu and Sore Throat; Equaline Infants Acetaminophen; Equaline Infants Pain and Fever; Equaline Mucus Relief; Equaline Multi Symptom Flu and Severe Cold Daytime; Equaline Nighttime; Equaline Nighttime Cold and Flu Relief; Equaline Nighttime Severe Cold and Flu; Equaline Pain Relief; Equaline Pain Relief Childrens; Equaline Pain Relief Extra Strength; Equaline Pain Relief PM; Equaline Pain Relief PM Extra Strength; Equaline Sinus Congestion and Pain Daytime; Equaline childrens pain and fever; Equaline headache formula added strength; Equaline infants acetaminophen; Equaline migraine formula; Equaline mucus relief; Equaline nighttime cold and flu relief; Equaline nighttime cold multi symptom; Equaline pain relief concentrated; Equaline pain relief extra strength; Equaline pain relief infants concentrated; Equate 8HR Arthritis Pain Relief; Equate Acetaminophen; Equate Arthritis Pain; Equate Childrens Acetaminophen; Equate Childrens Pain and Fever; Equate Childrens acetaminophen; Equate Day time cold and flu multi symptom relief; Equate DayTime NiteTime; Equate DayTime NiteTime Severe; Equate DayTime Severe; Equate Daytime; Equate Daytime Cold and Flu; Equate Daytime Liquid Capsules; Equate Daytime Nitetime; Equate Daytime Severe; Equate Flu and Severe Cold and Cough; Equate Migraine Relief; Equate Nighttime Liquid Capsules; Equate Nite Time Cold Flu Relief; Equate NiteTime; Equate NiteTime DayTime; Equate Nitetime; Equate Nitetime Cold and Flu; Equate Nitetime Severe; Equate Pain Reliever Extra Strength; Equate Pain and Fever; Equate Pain and Fever Childrens; Equate Pain and Fever Infants; Equate Severe Cold Multi Symptom; Equate Sinus Day Time; Equate Sinus Night Time; Equate arthritis pain; Esgic; Euro Acetaminophen; Exaprin; Excedrin; Excedrin Back and Body; Excedrin Extra Strength; Excedrin Extra Strength Caplets; Excedrin Extra Strength Geltabs; Excedrin Extra Strength Pain Reliever; Excedrin Menstrual Complete; Excedrin Migraine; Excedrin Migraine Geltabs; Excedrin Mild Headache Caplets; Excedrin PM; Excedrin PM Triple Action Caplets; Excedrin Tension Headache; Excedrin Tension Headache Pain Reliever; Exdol 15tab; Exdol 30tab; Exdol 8 Tab; Exdol-15; Exdol-30; Exdol-8; Extra Fast Coltalin; Extra Pain Relief; Extra Strenght Headache Relief; Extra Strenghth Acetaminophen; Extra Strength Acetaminohpen Adult Rapid Burst Cherry; Extra Strength Acetaminophen; Extra Strength Acetaminophen 500 Mg Caplets; Extra Strength Acetaminophen 500 Mg Gelcaps; Extra Strength Acetaminophen 500 mg; Extra Strength Acetaminophen 500mg Easy To Swallow Tablets; Extra Strength Acetaminophen Caplets; Extra Strength Acetaminophen Gelcaps; Extra Strength Acetaminophen Liquid Gel Capsules; Extra Strength Acetaminophen Orally Disintegrating Tablets; Extra Strength Acetaminophen PM; Extra Strength Acetaminophen Quick Release Gelcaps; Extra Strength Acetaminophen Tablets; Extra Strength Acetaminophen Tablets 500 mg; Extra Strength Acetaminophen Tablets 500mg; Extra Strength Allergy Plus Sinus Relief; Extra Strength Allergy Sinus Medication; Extra Strength Allergy Total; Extra Strength Allergy and Sinus Relief; Extra Strength Aspirin Free Pain Relief; Extra Strength Back Pain; Extra Strength Body Pain Night; Extra Strength Caplets Bromaphen; Extra Strength Cold Medication Day Time Relief; Extra Strength Cold Medication Daytime Relief; Extra Strength Cold Medication Daytime Rlf; Extra Strength Cold Medication Night Time Relief; Extra Strength Cold Medication Nighttime Relief; Extra Strength Cold Medication Nighttime Rlf; Extra Strength Contac Cold & Sinus Hot Medicated Drink; Extra Strength Contac Cold & Sore Throat; Extra Strength Contac Complete Cough, Cold & Flu; Extra Strength Contac Plus Cold Nasal Congestion; Extra Strength Day and Night Cold Medication; Extra Strength Daytime Cold Relief; Extra Strength Daytime Cold Relief PE; Extra Strength Daytime Cold Relief-caplet; Extra Strength Daytime Flu PE; Extra Strength Flu Relief Daytime; Extra Strength Flu Relief Nightime; Extra Strength Head Cold and Sinus; Extra Strength Headache Pain Fever Relief Liquid Gels; Extra Strength Headache Relief; Extra Strength Mapap; Extra Strength Mapap PM; Extra Strength Menstrual Complete; Extra Strength Multi-symptom Pms Relief; Extra Strength Multi-symptom Relief Sugar Free; Extra Strength Muscle & Back Pain Relief; Extra Strength Neocitran Cold Syrup With Mucus Relief; Extra Strength Neocitran Flu Night; Extra Strength Neocitran Flu Syrup; Extra Strength Neocitran Total Night; Extra Strength Neocitran Total Symptom Relief - Sugar Free; Extra Strength Neocitran Total Syrup; Extra Strength Night Time Pain Medicine; Extra Strength Nighttime Cold Relief; Extra Strength Nighttime Cold Relief PE; Extra Strength Nighttime Cold Relief-caplet; Extra Strength Nighttime Flu PE; Extra Strength Nighttime Pain Reliever / Sleep Aid; Extra Strength Non-Aspirin PM; Extra Strength Non-Aspirin Pain Reliever; Extra Strength PM Pain Relief; Extra Strength Pain Relief; Extra Strength Pain Relief Acetaminophen; Extra Strength Pain Relief PM; Extra Strength Pain Reliever; Extra Strength Pain Reliever Fever Reducer; Extra Strength Pain Reliever PM; Extra Strength Pharmacitron; Extra Strength QPAP; Extra Strength QPap; Extra Strength Sinus Congestion and Headache Day Time Relief; Extra Strength Sinus Medication-caplet; Extra Strength Sinus Relief; Extra Strength Sinus Relief Daytime; Extra Strength Sinus Relief Nighttime; Extra Strength Sinus Relief-caplet; Extra Strength Tablets Bromaphen; Extra Strength Total Symptom Relief Sugar-free; Extra Strength Tylenol; Extra Strength Tylenol Aches and Strains; Extra Strength Tylenol Allergy; Extra Strength Tylenol Allergy Sinus Caplets; Extra Strength Tylenol Allergy Sinus Nighttime Caplet; Extra Strength Tylenol Allergy and Cough; Extra Strength Tylenol Back Pain; Extra Strength Tylenol Body Pain Night; Extra Strength Tylenol Cold & Sinus Daytime; Extra Strength Tylenol Cold & Sinus Nighttime; Extra Strength Tylenol Cold Daytime; Extra Strength Tylenol Cold Nighttime; Extra Strength Tylenol Cold Nighttime Caplet; Extra Strength Tylenol Cold and Flu Daytime; Extra Strength Tylenol Cold and Flu Nighttime; Extra Strength Tylenol Cold and Flu Powder; Extra Strength Tylenol Complete Cold, Cough & Flu; Extra Strength Tylenol Complete Cold, Cough & Flu Daytime; Extra Strength Tylenol Complete Cold, Cough & Flu Nighttime; Extra Strength Tylenol Complete Cold, Cough & Flu Plus Mucus Relief; Extra Strength Tylenol Complete Cold, Cough & Flu Plus Mucus Relief Nighttime; Extra Strength Tylenol Congested Cough Caplets; Extra Strength Tylenol Cough Caplets; Extra Strength Tylenol Flu Daytime; Extra Strength Tylenol Flu Nighttime; Extra Strength Tylenol Flu Nighttime Gelcap; Extra Strength Tylenol Liquid Gels; Extra Strength Tylenol Menstrual Caplets; Extra Strength Tylenol Nighttime; Extra Strength Tylenol Pain and Head Cold Night; Extra Strength Tylenol Pain and Head Cold Night Rapid Release; Extra Strength Tylenol Rapid Blast; Extra Strength Tylenol Rapid Release; Extra Strength Tylenol Sinus Daytime; Extra Strength Tylenol Sinus Nighttime; Extra Strength Tylenol Sinus Pain and Congestion Daytime; Extra Strength Tylenol Sinus Pain and Congestion Nighttime; Extra Strength pain relief; Facol Cold and Flu Day; Facol Cold and Flu Day and Night; Facol Cold and Flu Night; Family Care Cold and Flu Multi Symptom; Family Care Cold and Flu Nighttime; Family Dollar Multi-Symptom Severe Cold Green Tea and Honey Lemon flavors; Family Dollar Nighttime Severe Cold and Cough honey lemon infused with chamomile and white tea flavors; Family Wellness Acetaminophen; Family Wellness Migraine Relief; Fast Cold and Flu Relief; Fast Maximum Night Time Cold and Flu; Fast Mucus Relief; Fast Mucus Relief Cold Flu and Sore Throat Maximum Strength Multi-Symptom; Fedrin; Fem Relief; Femadrine; Fever Reducer and Pain Reliever; Fever Reducing Childrens; FeverALL Adults; FeverALL Children; FeverALL Infants; FeverALL Junior; Feverall; Feverall Adults; Feverall Childrens; Feverall Infants; Feverall Jr. Strength; Fioricet; Fioricet with Codeine; Flu BP Maximum Strength; Flu HBP; Flu HBP Maximum Strength; Flu HBP Maxium Strength; Flu Multi Symptom Relief; Flu Relief; Flu Relief Childrens; Flu Relief Cold and Chest Congestion; Flu Relief Therapy; Flu Relief Therapy Day Time; Flu Relief Therapy Daytime; Flu Relief Therapy Daytime Severe Cold; Flu Relief Therapy Night Time; Flu Relief Therapy Nighttime; Flu Relief Therapy Nighttime Severe Cold; Flu Relief Therapy Severe Cough and Cold Nighttime; Flu and Severe Cold; Flu and Severe Cold Daytime Relief; Flu and Severe Cold Nighttime Relief; Flu and Severe Cold and Cough; Flu and Severe Cold and Cough Daytime; Flu and Severe Cold and Cough Night Time; Flu and Severe Cold and Cough Nighttime; Flu and Severe Cold and Cough Nite Time; Flu and Severe Cold and Cough daytime; Flu and Sore Throat; Flu and Sore Throat Multi Symptom; Flu and Sore Throat Relief; Flu and Sore Throat Soothing Warm Relief; Flu and severe cold daytime nighttime; Flu, Cough & Cold Complete; Flu, Cough & Cold Complete Day and Night; Flu, Cough and Sore Throat; Flu-away-extra Strength; Flu-away-regular Strength; Formu Care Flu and Severe Cold and Cough Night Time; Formu Care pain relief; Formu Care pain reliever added strength; Fortolin; Fulton Street Market Cold; Fulton Street Market Night Time Cold and Flu; Fulton Street Market Nighttime Flu and Severe Cold and Cough; Fulton Street Market cold and flu; Fulton Street Market pain relief extra strength; G-Dologen; GFA First Aid Kit Essentials - 33 Pieces; GOODYS Extra Strength Headache Mixed Fruit Blast; Ganmaoling 999; Genuine First Aid - Auto First Aid; Genuine First Aid - Home First Aid; Genuine First Aid Industrial First Aid; Gesteira; Gin Pain Pills  -  Tab; Good Neighbor Pharmacy 8 Hour Pain Relief; Good Neighbor Pharmacy Allergy Multi Symptom; Good Neighbor Pharmacy Childrens Pain Relief; Good Neighbor Pharmacy Childrens Pain Relief Plus Cough and Sore Throat; Good Neighbor Pharmacy Childrens Pain and Fever; Good Neighbor Pharmacy Cleartime; Good Neighbor Pharmacy Cold; Good Neighbor Pharmacy Cold Head Congestion; Good Neighbor Pharmacy Cold Multi Symptom; Good Neighbor Pharmacy Cold Plus Multi Symptom; Good Neighbor Pharmacy Cold Severe; Good Neighbor Pharmacy Cold and Flu Night Time; Good Neighbor Pharmacy Cough and Sore Throat; Good Neighbor Pharmacy Day Time; Good Neighbor Pharmacy Day Time Cold and Flu; Good Neighbor Pharmacy Day Time Severe; Good Neighbor Pharmacy Flu and Severe Cold Daytime; Good Neighbor Pharmacy Flu and Severe Cold and Cough; Good Neighbor Pharmacy Flu and Severe Cold and Cough Nighttime; Good Neighbor Pharmacy Flu and Sore throat; Good Neighbor Pharmacy Headache PM; Good Neighbor Pharmacy Headache Relief; Good Neighbor Pharmacy Migraine Relief; Good Neighbor Pharmacy Mucus Relief Severe Cold; Good Neighbor Pharmacy Mucus Relief Severe Cold Cold and Flu Night Time; Good Neighbor Pharmacy Mucus Relief Severe Congestion and Cold; Good Neighbor Pharmacy Mucus Relief cold and sinus; Good Neighbor Pharmacy Multi Symptom; Good Neighbor Pharmacy Night Time; Good Neighbor Pharmacy Night Time Cold and Flu; Good Neighbor Pharmacy Night Time D; Good Neighbor Pharmacy Night Time Severe; Good Neighbor Pharmacy Pain Relief; Good Neighbor Pharmacy Pain Relief Childrens; Good Neighbor Pharmacy Pain Relief Extra Strength; Good Neighbor Pharmacy Pain Relief Infants; Good Neighbor Pharmacy Pain Relief PM; Good Neighbor Pharmacy Pain Relief Rapid Release Extra Strength; Good Neighbor Pharmacy Pain Relief Regular Strength; Good Neighbor Pharmacy Pain Relief and Pain Relief PM; Good Neighbor Pharmacy Pain and Fever; Good Neighbor Pharmacy Pain and Fever Childrens; Good Neighbor Pharmacy Severe Cold; Good Neighbor Pharmacy Severe Day Time; Good Neighbor Pharmacy Severe Night Time; Good Neighbor Pharmacy Severe Sinus Congestion; Good Neighbor Pharmacy Sinus; Good Neighbor Pharmacy Sinus Congestion and Pain; Good Neighbor Pharmacy Sinus Relief; Good Neighbor Pharmacy Sinus Relief Day Time Night Time; Good Neighbor Pharmacy childrens pain and fever; Good Neighbor Pharmacy headache relief; Good Neighbor pharmacy severe night time; Good Sense Allergy Multi Symptom; Good Sense Childrens Pain and Fever; Good Sense Cold; Good Sense Cold Head Congestion; Good Sense Cold Head Congestion Severe; Good Sense Cold Max; Good Sense Cold and Flu Severe; Good Sense Cough and Sore Throat Daytime Non Drowsy; Good Sense Cough and Sore Throat Night Time; Good Sense Daytime; Good Sense Daytime non drowsy cold and flu; Good Sense Flu and Severe Cold and Cough; Good Sense Flu and Severe Cold and Cough Daytime; Good Sense Flu and Severe Cold and Cough Nighttime; Good Sense Flu and Sore Throat; Good Sense Migraine Formula; Good Sense Mucus Relief Cold and Sinus; Good Sense Mucus Relief Severe Congestion and Cold; Good Sense Mucus Relief cold flu and sore throat; Good Sense Multi Symptom Flu and Severe Cold; Good Sense Night Time; Good Sense Night Time Cold and Flu; Good Sense NightTime DayTime Cold and Flu; Good Sense Nighttime; Good Sense Pain Relief; Good Sense Pain Relief 8 Hour; Good Sense Pain Relief Arthritis Pain; Good Sense Pain Relief Childrens; Good Sense Pain Relief Extra Strength; Good Sense Pain Relief Infants Concentrated; Good Sense Pain Relief PM; Good Sense Pain Relief PM Extra Strength; Good Sense Pain Reliefchildrens Childrens; Good Sense Pain and Fever; Good Sense Pain and Fever Infants; Good Sense Severe Cold; Good Sense Severe Daytime Cold and Flu; Good Sense Severe NightTime; Good Sense Severe NightTime Cold and Flu; Good Sense Severe Sinus Congestion; Good Sense Sinus Congestion and Pain; Good Sense Sinus Relief; Good Sense Sinus plus Headache; Good Sense cold multi symptom; Good Sense headache formula added strength; Good Sense headache pm; Good Sense night time cold and flu; Good Sense pain and fever; Good Sense pain relief pm extra strength; Good neighbor pharmacy mucus relief; Goodys; Goodys Back and Body; Goodys Back and Body Pain; Goodys Cool Orange; Goodys Cool Orange Headache; Goodys Extra Strength; Goodys Headache Relief Shot; Goodys Migraine Relief; Goodys PM Pain Reliever; Green Guard Advanced Sinus Relief; Green Guard Cough and Cold Relief; Green Guard Maximum Non-Aspirin; Green Guard PMS Relief; Green Guard Pain and Ache Relief; Gripmax; Grippalin; Grippalin & C Tab; Grippe Extra Fort Jour; Grippe Extra Fort Nuit; HEALTH SENSE TACTINAL Extra Strength; HEALTH SENSE TACTINAL Regular Strength; HEB Day Time Night Time Severe Cold and Flu; HEB DayTime Flu And Severe Cold And Cough; Handy Solutions Acetaminophen; Handy Solutions Cold Relief; Handy Solutions Headache Pain Relief; Handy Solutions Sinus Congestion and Pain Relief; Hanshinnocol; Harmon Core Values Infants Pain and Fever; Harmon Face Values Night Time Relief; Harmon Face Values Pain and Fever; Harris Teeter Acetaminophen PM; Harris Teeter Arthritis Pain; Harris Teeter Childrens Pain and Fever; Harris Teeter Day Time; Harris Teeter DayTime; Harris Teeter DayTime NightTime; Harris Teeter Infants Pain and Fever; Harris Teeter Migraine Relief; Harris Teeter NightTime; Harris Teeter NightTime Cold and Flu; Harris Teeter Pain and Fever Childrens; Harris Teeter Pain and Fever Infants; Harris Teeter Sinus Relief; Head Cold and Sinus Relief Caplets; Head Congestion; Head Congestion Cold Relief; Head Congestion Cold Relief Severe Non-Drowsy; Head Congestion Daytime and Nighttime Cold; Head Congestion and Cold Relief Daytime; Headache Formula Added Strength; Headache Formula Extra Strength; Headache Formula PM; Headache PM; Headache PM Aspirin Free; Headache PM Formula; Headache Relief; Headache Relief Added Strength; Headache Relief Extra Strength; Headache Relief Mild; Headache Relief PM; Headache Relief To Go; Headache relief Extra Strength; Health Mart Childrens Pain and Fever; Health Mart Daytime; Health Mart Junior Rapid Melts; Health Mart Migraine Formula; Health Mart Migraine Relief; Health Mart Multi-Symptom Cold and Flu Night Time; Health Mart Night Time Cold and Flu; Health Mart Pain Relief; Health Mart Pain and Fever; Health Mart Pain and Fever Childrens; Health Mart Severe Cold Cough and Flu; Health Mart Severe Cold and Flu; Health Mart arthritis pain relief; Health Mart infants pain and fever; Health Mart pain relief; Health Mart severe cold cough and flu; HealthMart Mucus Relief FM; Healthy Accents Allergy Multi Symptom; Healthy Accents Arthritis Pain Relief; Healthy Accents Childrens Multi Symptom Fever and Cold; Healthy Accents Cleartime; Healthy Accents Cold; Healthy Accents Cold Head Congestion; Healthy Accents Cold and Cough; Healthy Accents Cold and Flu; Healthy Accents Cough and Sore Throat Night Time; Healthy Accents Daytime; Healthy Accents Daytime Cold and Flu; Healthy Accents Daytime Nighttime Cold and Flu; Healthy Accents Mucus Relief Severe Cold; Healthy Accents Mucus Relief Severe Congestion and Cold; Healthy Accents Mucus Relief cold and sinus; Healthy Accents Mucus Relief cold flu and sore throat; Healthy Accents Multi Symptom Cold; Healthy Accents Nighttime Cold and Flu; Healthy Accents Nighttime Daytime Cold and Flu; Healthy Accents Pain Relief; Healthy Accents Pain Relief Childrens; Healthy Accents Pain Relief Infants; Healthy Accents Pain Relief PM; Healthy Accents Pain Relief PM Extra Strength; Healthy Accents Pain Relief extra strength; Healthy Accents Severe Cold; Healthy Accents Severe Cold Daytime; Healthy Accents Sinus; Healthy Accents Sinus Congestion and Pain Day Time; Healthy Accents Sinus Day Time; Healthy Accents Sinus Relief; Healthy Accents cold head congestion daytime non drowsy; Healthy Accents headache relief added strength; Healthy Accents infants pain and fever; Healthy Accents migraine formula; Healthy Accents nighttime cold and flu; Healthy Mama Eazzze The Pain; Healthy Mama Shake That Ache; Help I Have a Headache; Henry Schein Acetaminophen; High Blood Pressure Cold and Flu; HistaFlex; Histenol Cold Tablets; Histenol Forte II; Histenol II; Hot Lemon Cold and Flu Relief Extra Strength; Hot Lemon Cold and Flu Relief Regular Strength; Hot Lemon Extra Strength; Hot Lemon Night Time Total Extra Strength; Hot Lemon Regular - Pwr; Hot Lemon Relief - Extra Strength; Hot Lemon Relief Extra Strength; Hot Lemon Relief Pck-pws; Hot Lemon Relief Powder; Hot Lemon Relief Powder Extra Strength; Hot Lemon Relief Powder Regular Strength; Hot Lemon Relief Regular Strength; Hot Lemon Relief for Cold Symptoms Ext Str; Hot Lemon Relief for Cold Symptoms Pws; Hot Lemon Relief for Sore Throat and Cough Extra Strength; Hot Lemon Relief for Symptoms Of Cold and Flu; Hot Lemon Relief for Symptoms Of Cold and Flu Extra Strength; Hot Lemon Relief for Symptoms Of Cold and Flu Forte; Hot Lemon Relief for Symptoms Of Cold and Flu Regular Strength; Hot Lemon Relief for Symptoms Of Cough, Cold and Flu; Hot Lemon Relief for Symptoms Of Cough, Cold and Flu Extra Strength; Hot Lemon Relief-extra Strength Pck-pws; Hot Lemon for Colds Powder; Hot Liquid Relief for Symptoms Of Flu and Sore Throat; Humana Pharmacy Daytime Cold and Flu Relief; Humana Pharmacy Sinus Relief; Hycet; Hydrocodone Acetaminophen; Hydrocodone Bit/apap; Hydrocodone Bitartate and Acetaminophen; Hydrocodone Bitartrate; Hydrocodone Bitartrate And Acetaminophen; Hydrocodone Bitartrate and Acetaminophen; Hydrocodone Bitartrate and Acetaminophen Tablets; Hydrocodone Bitatrate and Acetaminophen; Hydrocodone bitartrate and acetaminophen; Hydrocodone/apap; Hyrdrocodone Apap; Infant's Acetaminophen Suspension; Infant's Acetaminophen Suspension Drops; Infant's Duofen; Infant's Tylenol Sus 80mg/ml Dps - Grape Fl; Infants Acetaminophen; Infants Acetaminophen 80mg Suspension USP; Infants Acetaminophen Concentrated; Infants Concentrated Aspirin Free; Infants Dye Free Pain and Fever; Infants Fever Reducer and Pain Reliever; Infants Little Remedies for Fevers; Infants MAPAP; Infants Mapap Pain Reliever /fever Reducer; Infants Nanomol Dye-Free Cherry; Infants Pain Relief; Infants Pain Relief Concentrated; Infants Pain Relief Dye Free; Infants Pain Relief Dye-Free; Infants Pain Reliever; Infants Pain and Fever; Infants Silapap; Infants TYLENOL; Infants Tylenol Cold Suspension Drops; Infants and Children Pain Relief; Infants' Acetaminophen Drops 80mg/ml; Infants' Fever From Colds Or Flu; Infants' Tylenol Acetaminophen Sus Dps; Infants' Tylenol Fever & Sore Throat Pain; Ipg-tramadol/acet; Isometheptene Mucate, Caffeine, and Acetaminophen; Isometheptene Mucate, Dichloralphenazone, and Acetaminophen; Isometheptene Mucate/Dichloralphenazone/Acetaminophen; Isometheptene-Dichloral-APAP Oral; Jack & Jill Complete; Jack & Jill Cough, Cold & Flu Junior Strength Tablets; Jack & Jill Cough, Sore Throat & Fever; Jamp - Acetaminophen Blazon 500mg Tablets; Jamp Acetaminophen 500 Mg F.C. Tablets; Jamp Acetaminophen Film Coated Tablets; Jamp-acet-tramadol; Junior Acetaminophen Ages 6-11; Junior Aspirin Free Rapid Tabs; Junior Fast-Dissolving Pain and Fever Bubblegum Flavor; Junior Mapap; Junior Pain Relief; Junior Pain and Fever Fast Dissolving; Junior Rapid Melts; Junior Strength Acetaminophen; Junior Strength Acetaminophen Fruit Flav.tab; Junior Strength Acetaminophen Tablets; Junior Strength Acetaminophen Tablets-160mg; Junior Strength Chewable Acetaminophen Tablets USP 160mg; Junior Strength Children's Acetaminophen Tablets; Junior Strength Cold DM  -  Tablet; Junior Strength Meltables; Junior Strength Pain Relief; Junior Strength Pain Reliever; Junior Strength Tylenol Chewable Tablets; Junior Strength Tylenol Cold and Cough; Junior Strength Tylenol Complete Cold, Cough & Fever; Junior Strength Tylenol Decongestant - Tab; Junior's Acetaminophen Easymelt Tablets; Junior's Chewable Acetaminophen Tablets; Junior's Chewable Acetaminophen Tablets (160mg - Grape Flavour); KMart - Fast Maximum Cold and Sinus; KMart - Fast Maximum Cold, Flu and Sore Throat Relief; KMart - Pain Relief PM; Kgs Allergy Soothing; Kirkland Signature Acetaminophen Adult Extra Strength; Kirkland Signature Arthritis Pain; Kirkland Signature Cold; Kirkland Signature Non Aspirin Extra Strength; Kirkland Signature Pain Relief; Kirkland Signature Pain and Fever; Kroger DayTime Flu plus Severe Cold and Cough; Kroger NiteTime Flu plus Severe Cold and Cough; Leader 8 HR Muscle Aches and Pain; Leader 8 Hour Pain Reliever; Leader 8HR Arthritis Pain; Leader Acetaminophen; Leader Allergy Multi Symptom; Leader Arthritis Pain; Leader Arthritis Pain Reliever; Leader Childrens Pain Reliever; Leader Childrens Pain and Fever; Leader Cold Head Congestion; Leader Cold Relief; Leader Cold and Flu; Leader Day Time; Leader Day Time Multi Symptom Cold Flu Relief; Leader Daytime Cold and Flu; Leader Daytime Severe Cold and Flu; Leader Extra Strength Pain Relief; Leader Flu and Severe Cold and Cough; Leader Headache Formula Added Strength; Leader Headache PM Formula; Leader Headache Relief PM; Leader Infants Pain and Fever; Leader Migraine Relief; Leader Mucus Relief; Leader Mucus Relief Cold Flu and Sore Throat; Leader Mucus Relief Cold and Sinus; Leader Mucus Relief Sever Cold; Leader Mucus Relief Severe Congestion and Cold; Leader Nighttime Cold and Flu; Leader Nighttime Severe Cold and Flu; Leader Nite Time; Leader Nite Time Cold Flu Relief Multi Symptom; Leader Nite Time Multi Symptom Cold and Flu Relief; Leader Nite Time Severe Cold and Flu; Leader Pain Relief 8 HR; Leader Pain Relief Childrens; Leader Pain Reliever; Leader Pain Reliever Childrens; Leader Pain Reliever Extra Strength; Leader Pain Reliever Infants Concentrated; Leader Pain Reliever PM; Leader Pain and Fever; Leader Pain and Fever Infants; Leader Premenstrual; Leader Severe Cold and Flu; Leader Severe Sinus Congestion; Leader Sinus Congestion and Pain Daytime Non Drowsy; Leader Sinus Relief; Leader Tussin CF; Leader migraine formula; Leader mucus relief cold and sinus; Leader multi symptom flu and severe cold; Leader nite time multi symptom cold flu relief; Leader severe cold and flu; Leader sinus relief; Legatrin PM; Lemon Time; Life Acetaminophen Tab 325mg; Lil Drug Store Allergy Sinus Relief; Lil Drug Store Cold Relief; Lil Drug Store Headache Relief Extra Strength; Lil Drug Store Infants Pain Reliever; Lil Drug Store Multi-Symptom Sinus Relief; Lil Drug Store Multi-Symptom Sinus Severe Congestion; Lil Drug Store NyQuil Severe Cold and Flu, Max Strength; Lil Drug Store Pain Reliever Extra Strength; Little Colds Multi Symptom Cold; Little Colds Multi Symptom Cold plus Fever; Little Colds Multi-symptom Cold Formula; Little Fevers Childrens Fever Pain Reliever; Little Fevers Infant Berry Fever/Pain Reliever; Little Fevers Infant Grape Fever/Pain Reliever; Little Fevers by Little Remedies; Lorcet; Lorcet 10/650; Lorcet Hd; Lorcet Plus; Lortab; Lortab 10/325; Lortab 5/325; Lortab 7.5/325; Lupin-tramadol/acet; M-acetaminophen 325mg; M-acetaminophen 500mg; MAX Cold, Flu, and Sore Throat; MEDI-FIRST Non-Aspirin; MEDI-FIRST Non-Aspirin Extra Strength; MEDIQUE APAP Extra Strength; MEDIQUE Back Pain Off; Major Night Time Multi Symptom cold and flu relief; Mapap; Mapap Arthritis Pain; Mapap Childrens; Mapap Extra Strength; Mapap Infants Concentrated; Mapap Sinus Congestion and Pain Maximum Strength; Mar-tramadol/acet; Margesic; Marten-Tab; Maux De Gorge Et De LA Toux Extra-fort; Max Non Aspirin; Maxidone; Maximum Strength Allergy Sinus; Maximum Strength Congestion and Headache; Maximum Strength Daytime Cold/Flu Relief; Maximum Strength Flu; Maximum Strength Flu HBP; Maximum Strength Menstrual Complete; Maximum Strength Mucus Relief Cold Flu and Sore Throat; Maximum Strength Mucus Relief Cold,Flu and Sore Throat; Maximum Strength Night Time Cold and Flu Relief; Maximum Strength Nighttime Cold/Flu Relief; McKesson Nite Time; Medi First Cramp; Medi First Pain Relief; Medi First Plus Cramp; Medi First Plus Non-Aspirin; Medi First Plus Non-Aspirin Extra Strength; Medi First Plus Pain Zapper; Medi First Plus Sinus Pain and Pressure; Medi First Sinus Pain and Pressure; Medi-First Cold Relief; Medi-First Plus Cold Relief; Medicament Pour Le Rhume, Jour; Medicament Pour Le Rhume, Nuit; Medicament Pour Les Sinus Reg Caplet; Medicament Pour Les Sinus, Extra-fort; Medicament Pour Les Sinus, Regulier; Medicament Sinus Personnel EX-fort Caplet; Medicament Sinus Personnel Reg Caplet; Medicine Shoppe Arthritis Pain Reliever; Medique Apap; Medique CCP Caffeine Free; Medique Decorel Forte Plus; Medique Medicidin D; Medique Onset Forte; Medique Pain Off; Medline Acetaminophen; Meijer Daytime Severe Cold and Cough Berry infused with Menthol and Green Tea flavors; Meijer Multi-Symptom Severe Cold Green Tea and Honey Lemon flavors; Meijer Nighttime Severe Cold and Cough Honey Lemon infused with Chamomile and White Tea Flavors; Members Mark Acetaminophen; Members Mark Allergy; Members Mark Arthritis Pain; Menstrual Complete; Menstrual Complete Maximum Strength; Menstrual Midol Complete; Menstrual Pain Relief; Menstrual Pain Relief Maximum Strength; Menstrual Pain Relief Maximum Strength / Multi Symptom; Menstrual Pain Relief Maximum Strength, Multi-Symptom; Menstrual Relief; Menstrual Relief Extra Strength; Menstrual Relief Maximum Strength; Menstrual Relief Maximum Strength Multi Symptom; Menstrual Relief Multi-Symptom; Menstrual relief maximum strength; Mersyndol With Codeine; Methoxacet; Methoxacet Extra Strength; Methoxacet-C 1/8; Midol; Midol Complete; Midol Complete Gelcaps; Midol Extra Strength Gelcaps; Midol Extra Strength Menstrual; Midol Extra Strength Pms; Midol Long Lasting Relief; Midol Multi-symptom Caplets Extra Strength; Midol Multi-symptom Gelcap Extra Strength; Midol Night-time; Midol One; Midol PM; Midol Pms; Midol Pms Extra Strength Tab; Midol Teen; Migraine Formula; Migraine Relief; Migrenol; Mint-tramadol/acet; Moore Medical Extra Strength Non Aspirin; Moore Medical Extra Strength Non-Aspirin; Moore Medical MooreBrand Severe Cold Relief; Moore Medical Non Aspirin; Moore Medical Sinus Pain and Pressure Relief; Mountain Series Weekender Medical; Mucinex Fast-Max Cold and Sinus; Mucinex Fast-Max Cold, Flu and Sore Throat; Mucinex Fast-Max Cold, Flu and Sore Throat Clear and Cool; Mucinex Fast-Max Congestion and Headache; Mucinex Fast-Max Congestion and Headache Clear and Cool; Mucinex Fast-Max Day Severe Cold and Night Cold and Flu; Mucinex Fast-Max Day Time Severe Cold and Mucinex Fast-Max Night Time Cold and Flu Maximum Strength; Mucinex Fast-Max Day Time Severe Congestion and Cough - Mucinex Fast-Max Night Time Cold and Flu Maximum Strength; Mucinex Fast-Max Day Time Severe Congestion and Cough and Mucinex Fast-Max Night Time Cold and Flu Maximum Strength; Mucinex Fast-Max Night Time Cold and Flu; Mucinex Fast-Max Night Time Cold and Flu Clear and Cool; Mucinex Fast-Max SEVERE COLD; Mucinex Fast-Max Severe Cold; Mucinex Fast-Max Severe Cold and Sinus; Mucinex Fast-Max Severe Congestion and Cold; Mucinex Fast-Max Severe Congestion and Cough Clear and Cool and Mucinex Fast-Max Night Time Cold and Flu Clear and Cool; Mucinex Multi-action Cold & Sinus Caplets; Mucinex Multi-action Cold & Sinus Liquid; Mucinex Multi-action Cold, Flu & Sore Throat Caplets; Mucinex Multi-action Cold, Flu & Sore Throat Liquid; Mucinex Multi-action Congestion & Cold Caplets; Mucinex Sinus - Max Day / Night; Mucinex Sinus-Max Day Night Maximum Strength; Mucinex Sinus-Max Day Time Severe Congestion Relief and Mucinex Sinus-Max Night Time Congestion and Cough Maximum Strength; Mucinex Sinus-Max Night Time Congestion and Cough; Mucinex Sinus-Max Pressure and Pain; Mucinex Sinus-Max Pressure, Pain and Cough; Mucinex Sinus-Max Severe Congestion Relief; Mucinex Sinus-Max Severe Congestion Relief Clear and Cool; Mucinex Sinus-Max Severe Congestion Relief Maximum Strength; Mucinex Sinus-Max Severe Congestion and Pain; Mucinex Sinus-action Complete Congestion and Sinus Pain; Mucinex Sinus-action Pressure, Pain & Congestion; Mucus Relief; Mucus Relief Cold Flu Sore Throat Maximum Strength; Mucus Relief Cold Flu and Sore Throat; Mucus Relief Cold Flu and Sore Throat Max Maximum Strength; Mucus Relief Cold Flu and Sore Throat Maximum Strength; Mucus Relief Cold and SInus Max Maximum Strength; Mucus Relief Cold and Sinus; Mucus Relief Cold and Sinus Maximum Strength; Mucus Relief Cold, Flu and Sore Throat; Mucus Relief Cold, Flu and Sore Throat Maximum Strength; Mucus Relief Cold, Flu, and Sore Throat Maximum Strength; Mucus Relief Day Time and Night Time; Mucus Relief Daytime/Nighttime; Mucus Relief Daytime/Nighttime/Maximum Strength; Mucus Relief MAXIMUM STRENGTH; Mucus Relief Maximum Strength; Mucus Relief Maximum Strength Multi Symptom Relief; Mucus Relief Maximum StrengthCold Flu and Sore Throat; Mucus Relief Plus; Mucus Relief Severe Cold; Mucus Relief Severe Cold Daytime Maximum Strength; Mucus Relief Severe Congestion and Cold; Mucus Relief Severe Congestion and Cold Max Maximum Strength; Mucus Relief Severe Sinus Congestion Maximum Strength; Mucus Relief Sinus Congestion Daytime Nighttime Maximum Strength; Mucus Relief Sinus Day and Night; Mucus Relief Sinus Pressure and Pain; Mucus Relief Sinus Severe Congestion Relief; Mucus Relief cold and sinus; Mucus Relief cold flu and sore throat; Mucus Relief, Cold, Flu and Sore Throat Maximum Strength, Multi-Symptom; Mucus and Sinus PE; Multi Symptom Cold; Multi Symptom Cold Childrens; Multi Symptom Cold Childrens Plus; Multi Symptom Cold Plus Childrens; Multi Symptom Cold Plus Childrens Pain Relief; Multi Symptom Cold Relief Childrens; Multi Symptom Cold and Flu Relief Nighttime; Multi Symptom Fever and Cold Childrens; Multi Symptom Nitetime; Multi Symptom Severe Cold; Multi Symptom Severe Cold and Nighttime Severe Cold and Cough; Multi Sympton Cold Day Night; Multi symptom Nighttime cold and flu relief; Multi- Symptom Relief DayTime; Multi-Symptom Allergy; Multi-Symptom Cold; Multi-Symptom Cold Daytime; Multi-Symptom Cold Flu and Sore Throat Maximum Strength; Multi-Symptom Cold Relief; Multi-Symptom Cold Relief Daytime; Multi-Symptom Cold Relief Daytime, Nighttime; Multi-Symptom Cold Severe, Non-Drowsy, Daytime; Multi-Symptom Cold Warming Effect Daytime; Multi-Symptom Cold and Cough Daytime Nighttime; Multi-Symptom Cold and Flu DayTime; Multi-Symptom Cold and Sinus Maximum Strength; Multi-Symptom Daytime Cold; Multi-Symptom Daytime Cold Rapid Release; Multi-Symptom Daytime and Nighttime Cold and Flu Relief Plus; Multi-Symptom Mapap Cold Formula; Multi-Symptom Menstrual Pain Relief; Multi-Symptom Nighttime Cold; Multi-Symptom Nighttime Sinus Relief; Multi-Symptom Nitetime; Multi-Symptom Relief Cold and Flu Multi-Symptom Relief; Multi-gesic Tablets; Multi-symptom Daytime; Multi-symptom Nitetime; Multi-symptom Pms Relief; Multi-symptom Pms Relief Caplets; Muscle & Back Pain Relief; Muscle & Back Pain Relief - 8; Muscle & Back Pain Relief Caplets; Muscle & Back Pain Relief-8; Muscle Aches & Body Pain; Muscle Aches and Body Pain Relief; Muscle and Back Pain Relief; Muscle and Back Pain Relief - 8 Tablets; Muscle and Back Pain Relief Caplets; Muscle and Back Pain Relief Extra Strength; Muscle and Back Pain Relief Regular Strength Tablets; Muscle and Back Pain Relief-8; Mylan-tramadol/acet; N - Time; N - Time Sinus; NEXT COLD and FLU DAYTIME; NEXT COLD and FLU NIGHTTIME; NIGHT TIME COLD and FLU CHERRY; NIGHT TIME COLD and FLU FORMULA; NIGHTTIME COLD and FLU; Nasal + Sinus Cold Formula; Nasal Decongestant PE and Pain Relief Maximum Strength; Neo Citran Daycaps Extra Strength - Caplet; Neo Citran Extra Strength; Neo Citran Nutrasweet; Neo Citran Powder; Neocitran Cold & Flu Syrup; Neocitran Cold & Sore Throat Night; Neocitran Extra Strength Cold & Congestion; Neocitran Extra Strength Cold & Sinus Night; Neocitran Extra Strength Cold & Sinus Night - Apple Cinnamon; Neocitran Extra Strength Total Cold; Neocitran Extra Strength Total Cold Night; Neocitran Total Cold; Neocitran Total Cold Night; Neocitran Ultra Strength Total Flu; Neocitran Ultra Strength Total Flu Night; Next Day Time Non drowsy Cold and Flue; Next Night Severe Cold, Flu and Sore Throat; Next Night Time Cold and Flu Relief; Nicold Medicine for Adults; Night Cold Flu Cough and Allergy; Night Relief; Night Relief Cold and Flu Liquid Capsules; Night Relief Free; Night Relief Multi Symptom Cold and Flu; Night Relief sinus; Night Time; Night Time Cherry Pseudo-Free; Night Time Cold & Flu Liquid; Night Time Cold Max; Night Time Cold Multi-Symptom; Night Time Cold and Flu; Night Time Cold and Flu Multi Symptom; Night Time Cold and Flu Original; Night Time Cold and Flu ReadyInCase; Night Time Cold and Flu Relief; Night Time Cold and Flu Relief Multi Symptom; Night Time Cold and Flu Severe; Night Time Cold and Flue Relief; Night Time Cold/Flu Relief Cherry; Night Time Cold/Flu Relief Original; Night Time Cough Cherry; Night Time Cough and Sore Throat Cool Blast; Night Time Day Time Cold and Flu; Night Time Gelcap; Night Time Liquid Caps Cold Flu Multi symptom; Night Time MULTI-SYMPTOM COLD/FLU RELIEF; Night Time Multi Symptom Flu Cold Medicine; Night Time Multi Symptom Relief; Night Time Original Pseudo-Free; Night Time Pseudo-Free; Night Time Relief; Night Time Severe Cold and Cough; Night Time Severe Cold and Cough Relief; Night Time Severe Cold and Flu Relief; Night Time Sinus; Night Time Sinus Congestion and Pain; Night Time Sinus Relief; Night Time Sinus and Congestion; Night Time Softgels; Night Time Total Extra Strength; Night time cold and flu; Night time cold and flu multi symptom; Night time cold/flu relief multi symptom; Night time multi symptom cold/flu relief; Night time sinus; Night-Time Cherry MULTI-SYMPTOM COLD/FLU RELIEF; Night-Time Multi-Symptom Cold/Flu Relief; Night-Time Original MULTI-SYMPTOM COLD/FLU RELIEF; Night-time Multi-symptom Cold/flu Cherry; Night-time Multi-symptom Cold/flu Original; NightRelief DayRelief; NightRelief Free Multi symptom cold flu; NightTime; NightTime Cold and Flu; NightTime Cold and Flu Multi Symptom; NightTime Cold and Flu Relief; NightTime Maximum Strength Cold and Flu; NightTime Multi-Symptom Flu Cold; NightTime Pain Reliever PM; NightTime Relief Severe Cold and Flu; NightTime Sinus; NightTime Sinus Relief; Nightcap Cold and Flu Liquid Gels; Nightcap Complete Liquid Gels; Nighttime; Nighttime 325 Liqua Caps; Nighttime Body Pain; Nighttime Cold; Nighttime Cold & Flu Liquid Capsules; Nighttime Cold & Flu Relief; Nighttime Cold & Flu Relief Syrup; Nighttime Cold Flu Relief; Nighttime Cold Head Congestion; Nighttime Cold Max; Nighttime Cold Medicine; Nighttime Cold Multi Symptom Nighttime; Nighttime Cold Multi-Symptom Cool Blast; Nighttime Cold Relief Extra Strength Tablets; Nighttime Cold Relief Extra Strength Tablets PE; Nighttime Cold and Flu; Nighttime Cold and Flu Cherry; Nighttime Cold and Flu Extra Strength Medicine; Nighttime Cold and Flu Lil Drug Store Products; Nighttime Cold and Flu Liquid Capsules; Nighttime Cold and Flu Maximum Strength; Nighttime Cold and Flu ReadyInCase; Nighttime Cold and Flu Relief; Nighttime Cold and Flu Relief Alcohol Free; Nighttime Cold and Flu Relief Multi-Symptom; Nighttime Cold and Flu Relief Plus; Nighttime Cold and Flu Relief Therapy; Nighttime Cold and Flu cherry; Nighttime Cold and Flu original; Nighttime Cold and Flu-IN-one Extra Strength; Nighttime Cold and flu Relief; Nighttime Complete; Nighttime Cough and Sore Throat Liquid; Nighttime Cough. Cold. Flu Gel Capsules; Nighttime D Cold and Flu; Nighttime D Cold and Flu Relief; Nighttime Extra Strength Contac Cold & Sore Throat; Nighttime Extra Strength Contac Complete Cough, Cold & Flu; Nighttime Extra Strength Contac Complete Cough, Cold & Flu Plus Vitamin C; Nighttime Flu Relief Therapy Severe Cold; Nighttime Flu and Severe; Nighttime Flu, Cough & Cold Complete Relief Extra Strength; Nighttime Liqua Caps; Nighttime Multi Symptom; Nighttime Multi Symptom Cold and Flu Relief; Nighttime Multi-Symptom Cold; Nighttime Multi-Symptom Cold and Flu Relief; Nighttime Pain Plus Sleep; Nighttime Regular Strength Contac Cold Nasal Congestion; Nighttime SEVERE COLD and FLU; Nighttime Severe; Nighttime Severe Cold and Flu; Nighttime Severe Cold and Flu Relief; Nighttime Severe Cough and Cold; Nighttime Sinus Multi symptom; Nighttime Sinus Relief; Nighttime Sinus and Congestion Relief; Nighttime Super Strength Contac Complete; Nighttime Symptom Relief Extra Strength for Symptoms Of Cold and Cough; Nighttime Total Cold and Flu; Nighttime Total Super Strength; Nighttime cold and flu; Nighttime multi symptom; Nighttime severe; Nighttime sinus; Ninjacof-A; Nite Time; Nite Time Cold Flu Relief; Nite Time Cold Medicine; Nite Time Cold Medicine Cherry Flavor; Nite Time Cold and Flu; Nite Time Cold and Flu Relief; Nite Time Cold/Flu Relief; Nite Time Day Time; Nite Time Multi symptom cold flu relief; Nite Time multi symptom cold flu relief; Nite Time multi symptom cold/flu; Nite time Severe Cold and Flu Maximum Strength; Nite time cold and flu relief; Nite-Time COLD/FLU ORIGINAL; Nite-Time Cold and Flu Multi-Symptom Relief; Nite-TimeCOLD/FLU CHERRY COLD/FLU CHERRY; NiteTime; NiteTime Cold Flu Relief; NiteTime Cold and Flu; NiteTime Cold plus Flu Releif; NiteTime Cold/Flu, Multi-Symptom Relief; NiteTime DayTime Cold and Flu; NiteTime DayTime Severe Cold and Flu; NiteTime Multi-Symptom Cold/Flu Relief; NiteTime Severe Cold and Flu; NiteTime Sinus; NiteTime Sinus Relief; Nitecap Sinus Liquid Gels; Nitetime; Nitetime Cold Flu Relief; Nitetime Cold Medicine; Nitetime Cold Medicine Liq; Nitetime Cold Medicine Original and Cherry; Nitetime Cold Relief Extra Strength; Nitetime Cold and Flu; Nitetime Cough; Nitetime D; Nitetime D multi symptom cold flu relief; Nitetime Severe Cold and Flu Relief; Nitetime Sinus Relief; Nitetime cold and flu relief; Nodolor; Non Aspirin Childrens; Non Aspirin Extra Strength; Non Aspirin PM Extra Strength; Non Drowsy Cold and Cough PE; Non Drowsy Day Time cold and Flu Relief; Non Drowsy Extra Strength Contac Cold Sore Throat; Non Drowsy Regular Strength Contac Complete; Non Drowsy Super Strength Contac Cold Nasal Congestion; Non Drowsy Super Strength Contac Complete; Non-Aspirin; Non-Aspirin Acetaminophen; Non-Aspirin Junior Strength; Non-Aspirin PM Extra Strength; Non-Aspirin childrens; Non-Drowsy DayTime Cold and Flu Multi-Symptom Relief; Non-Drowsy Daytime Multi Symptom Cold and Flu Relief; Non-Drowsy Daytime Multi-Symptom Cold and Flu; Non-Drowsy Sinus Daytime; Non-Drowsy Wal-Phed PE Triple Relief; Non-aspirin; Non-drowsy Day Time; Non-drowsy Daytime Sinus Relief; Norco; Norel AD; Nortemp; Novo-gesic; Novo-gesic C15; Novo-gesic C30; Novo-gesic Forte; Novo-gesic-C8; Ntp-oxycodone Acetaminophen; Nu-acetaco #1; Nu-oxycodone/acet; NyQuil Cold and Flu; NyQuil Severe; NyQuil Severe Cold and Flu; Nyquil Liquicaps; Nyquil Sinus Liquicaps; Ofirmev; Ohm 8 Hour Pain Reliever/Fever Reducer; Oradrine 2 Tab; Oradrine Tablets; Orb-acetaminophen 325 Mg Caplets; Orb-acetaminophen 325 Mg Tablets; Orb-acetaminophen 500 Mg Caplets; Orb-acetaminophen 500 Mg Tablets; Orbivan; Original Night-Time MULTI-SYMPTOM COLD/FLU RELIEF; Otis Clapp Back Quell; Otis Clapp Mygrex; Otis Clapp Valihist; Our Family day time severe cold and Cough berry infused with menthol and green tea flavors; Our Family night time severe cold and cough honey lemon infused with chamomile and white tea flavors; Oxycodone Apap; Oxycodone Hydrochloride and Acetaminophen; Oxycodone and Acetaminophen; Oxycodone-acet; Oxycodone/acet; Oxycodone/acetaminophen; P.M. Cold Relief Formula; PE multi-stymptom cold and cough relief; PHL-acet-codeine 30; PHL-acet-codeine 60; PM Acetaminophen; PM Get Relief; PM pain reliever; PMS Formula Maximum Strength; PMS Midol Complete; PMS Relief Extra Strength; PMS Relief Maximum Strength; PMS-acetaminophen E; PMS-acetaminophen Suppositories 120mg; PMS-acetaminophen Suppositories 160mg; PMS-acetaminophen Suppositories 325mg; PMS-acetaminophen Suppositories 650mg; PMS-acetaminophen Tab 325mg; PMS-acetaminophen Tab 500mg; PMS-acetaminophen W Codeine Elixir; PMS-oxycodone - Acetaminophen; PMS-tramadol-acet; PRESSURE plus PAIN plus MUCUS; Pain & Fever + Cold; Pain & Fever + Cold & Cough; Pain & Fever + Decongestant; Pain Aid BRF; Pain Aid ESF; Pain Aid PMF; Pain Away Plus; Pain Away plus Sleep aid; Pain Free; Pain Free Plus; Pain Plus Sleep; Pain Relief; Pain Relief 8 HR; Pain Relief 8 Hour; Pain Relief 8 Hr; Pain Relief Acetaminophen Extra Strength; Pain Relief Acetaminophen PM Extra Strength; Pain Relief Added Strength; Pain Relief Adult Extra Strength; Pain Relief Childrens; Pain Relief Childrens Dye Free; Pain Relief Cold; Pain Relief Cold Multi Symptom; Pain Relief Concentrated Infants; Pain Relief Dye Free Infants; Pain Relief ES; Pain Relief EZ tabs Extra Strength; Pain Relief Easy Tabs Extra Strength; Pain Relief Extra Strength; Pain Relief Extra Strength Easy to Swallow; Pain Relief Extra Strength, Non-Aspirin; Pain Relief Infants; Pain Relief Infants Dye Free; Pain Relief Junior; Pain Relief Junior Strength; Pain Relief Maximum Strength; Pain Relief Medicine PM; Pain Relief Non Drowsy Daytime; Pain Relief Non-Drowsy, Daytime; Pain Relief PM; Pain Relief PM Extra Relief; Pain Relief PM Extra Strength; Pain Relief PM Extra Strength Aspirin Free; Pain Relief PM Extra strength; Pain Relief PM Nightime Sleep Aid; Pain Relief PM Rapid Release; Pain Relief PM extra strength; Pain Relief Pain Relief PM; Pain Relief Plus; Pain Relief Rapid Release Gelcaps Extra Strength; Pain Relief Regular Strength; Pain Relief Regular Strength, Aspirin Free; Pain Relief and Pain Relief PM; Pain Relief childrens; Pain Relief infants; Pain Relief plus Sleep Aid; Pain ReliefExtra Strength Extra Strength; Pain Reliefs Childrens; Pain Reliever; Pain Reliever Added Strength; Pain Reliever Children; Pain Reliever Childrens; Pain Reliever Extra Strength; Pain Reliever Extra Strength (Leader); Pain Reliever Extra Strength Non Aspirin; Pain Reliever Extra Strength PM; Pain Reliever Fever Reducer; Pain Reliever Fever Reducer Childrens; Pain Reliever Infants; Pain Reliever Junior Strength; Pain Reliever PM; Pain Reliever PM Extra Strength; Pain Reliever PM Extra strength; Pain Reliever Plus; Pain Reliever Rapid Release; Pain Reliever Regular Strength; Pain Reliever Sleep Aid Extra strength; Pain Stopper Extra; Pain Stoppers; Pain Stoppers EX; Pain Stoppers Extra; Pain Stoppers Regular; Pain Terminator; Pain Terminator 2 Severe; Pain and Fever; Pain and Fever Childrens; Pain and Fever Infants; Pain and Fever Junior; Pain and Fever Relief Children; Pain and Fever Relief Childrens; Pain and Fever Relief Childrens Strength; Pain and Fever Relief Childrens Strength, Wild Grape Flavor; Pain and Fever Relief Infants; Pain and Fever Relief Junior Strength; Pain and Fever Relief Junior Strength/Wild Grape Flavor; Pain and Sinus Reliever; Pain relief infants; Pain reliever PM Extra Strength; Painaid Free Acetaminophen Tablets - 500mg; Painaid Pmf Premenstrual Formula; Pamprin Cramp Menstrual Pain Relief; Pamprin Extra Strength Caplets; Pamprin Max Menstrual Pain Relief; Pamprin Multisymptom Menstrual Pain Relief; Pamprin Pms Caplets; Pamprin Tab; Panadol; Panadol Cold and Flu NonDrowsy; Panadol Extra; Panadol Extra Strength; Panadol PM; Panadol Tab 325mg; Panadol Tab 500mg; Panadol Tablet 500mg; Pancold S Oral; Panto A; Parafon Forte; Parafon Forte C8 W Codeine Tab; Parafon Forte Tablets; Parents Choice Infants Pain and Fever; Pat-tramadol/acet; Pdp-acetaminophen Solution 160mg/5ml; Pdp-acetaminophen Solution 80mg/5ml; Pdp-acetaminophen Solution 80mg/ml; PediaCare Childrens Fever Reducer Pain Reliever Cherry; PediaCare Childrens Fever Reducer Pain Reliever Dye Free; PediaCare Childrens Fever Reducer Pain Reliever Grape; PediaCare Childrens Plus Cough and Runny Nose; PediaCare Childrens Plus Cough and Sore Throat; PediaCare Childrens Plus Flu; PediaCare Childrens Plus Multisymptom Cold; PediaCare Infant Fever Pain Reliever; PediaCare Infants Fever Reducer Cherry; PediaCare Infants Fever Reducer Dye Free; PediaCare Infants Fever Reducer Grape; PediaCare Multi Symptom Cold; PediaCare Plus Multisymptom Cold; PediaCare Single Dose Fever Reducer; Pediacare-Cough-RunnyNose; Pediaphen; Pediaphen 80mg/5ml; Pediaphen Children's Acetaminophen Chewable Tablets USP 160mg/tablet; Pediaphen Children's Acetaminophen Chewable Tablets USP 80mg/tablet; Pediaphen Children's Acetaminophen Oral Solution USP 160mg/5ml; Pediaphen Children's Acetaminophen Oral Solution USP Drops 80mg/ml; Pediatrix; Pediatrix Drops; Pentazocine HCl and Acetaminophen; Pentazocine Hydrochloride and Acetaminophen; Percocet; Percocet-demi; Percogesic Extra Strength; Percogesic Original Strength; Personnelle Contre Le Rhume Liq; Pharbetol; Pharbetol Regular strength; Pharmacitron; Phrenilin Forte; Physicians Care Allergy Plus; Physicians Care Cold Cough; Physicians Care Extra Strength Pain Reliever; PhysiciansCare Allergy Multi-Symptom Relief; PhysiciansCare Cold and Cough Non-Drowsy; PhysiciansCare Non Aspirin Extra Strength; Plus Multi Symptom Cold Childrens Pain Relief; Plus Pharma Extra Strength Acetaminophen PM; Plus Pharma Pain Reliever,Fever Reducer; Plus PharmaPain Reliever,Fever Reducer Pain Reliever,Fever Reducer; PlusPharma Extra Strength PAIN RELIEVER,FEVER REDUCER 500 mg; Pnp Acetaminophen Tablets USP 325 Mg Regular Strength; Powerful Pain Medicine; Pracet 30; Pre Menstrual relief maximum strength; Preferred Plus Arthritis Pain; Preferred Plus Cold and Flu Night Time; Preferred Plus Day Time Cold and Flu; Preferred Plus Extra Strength Pain Relief; Preferred Plus Mucus Relief; Preferred Plus Mucus Relief Cold and Sinus; Preferred Plus Severe Cold; Preferred Plus Severe Cold Cough and Flu; Preferred Plus Severe Cold Day Time Cold and Flu Night Time; Preferred Plus Severe Day Time; Preferred Plus Severe Nite Time; Preferred Plus Severe Sinus Congestion; Preferred Plus Sinus Relief; Preferred Plus Sinus Relief Day Tiime Night Time; Premier Value Arthritis 8 Hour; Premier Value Arthritis Pain Reliever; Premier Value Childrens Acetaminophen Melts; Premier Value Multi-Symptom Severe Cold Green Tea and Honey Lemon flavors; Premier Value day time severe cold and cough berry infused with menthol and green tea flavors; Premier Value night time severe cold and cough honey lemon infused with chamomile and white tea flavors; Premsyn pms Premenstrual Pain Relief; Premsyn pms Premenstrual Syndrome Relief; Pressure Pain Cold PE; Pressure Pain Cough PE; Pressure Pain Mucus PE; Pressure Plus Pain PE; Pressure Plus Pain PE Plus Cold; Pressure and Pain PE; Pressure and Pain PE Plus Cold; Pressure and Pain PE Plus Mucus; Pressure and Pain PE plus Cough; Pressure and Pain and Cold; Pressure plus Pain PE; Pressure plus Pain PE plus Cough; Pressure plus Pain PE plus Mucus; Pressure plus Pain plus Mucus Non-Drowsy; Prime's Sore Throat, Cough and Colds Capsules; Primlev; Priva-tramadol/acet; Procet-30; Prodrin; Propoxyphene Hydrochloride and Acetaminophen; Propoxyphene Napsylate and Acetaminophen; Propoxyphene and Acetaminophen; Publix Cherry Flavor Nitetime; QPAP Infants Drops; Quality Choice Cold and Sore Throat Lemon Flavor; Quality Choice Daytime Severe Cold and Cough Berry infused with Menthol and Green Tea flavors; Quality Choice Extra Strength Pain Relief; Quality Choice Multi-Symptom, Non-Drowsy DayTime Cold and Flu; Quality Choice Nighttime Cold and Flu; Quality Choice Nighttime Severe Cold and Cough Honey Lemon infused with Chamomile and White Tea Flavors; Quality Choice day time severe cold and cough berry infused with menthol and green tea flavors; Quality Choice night time severe cold and cough honey lemon infused with chamomile and white tea flavors; Ran-acetaminophen 8 Hour; Ran-tramadol/acet; Rapid Action; Rapid Action Cold; Rapid Comfort Extra Strength Non Aspirin; Rapid Comfort Non Aspirin; Rapid Max Maximum Strength Cool and Clear - Cold, Flu and Sore throat; Rapid Melts Childrens; Rapid Release Acetaminophen Extra Strength; Rapid Release Acetaminophen PM Extra Strength; Rapid Release Multi-Symptom Allergy Relief; Rapid Release Pain Relief; Rapid Release Pain Relief PM; Rapid Tabs; Ratio-lenoltec No 1; Ratio-lenoltec No 2; Ratio-lenoltec No 3; Ratio-lenoltec No 4; Ready America First Aid Outdoor- 107 Pieces; Ready America First Aid Pocket - 33 Pieces; Reeses Onetab Allergy and Sinus; Reeses Onetab Cold and Flu; Reg.str.cold Medic.(night Time Relief)caplet; Regular Acetaminophen; Regular Strength Acetaminophen; Regular Strength Acetaminophen Caplets; Regular Strength Acetaminophen Tablets; Regular Strength Caplets Bromaphen; Regular Strength Cold Medication(daytime R.); Regular Strength Flu Relief Nightime; Regular Strength Headache Pain Fever Relief Liquid Gels; Regular Strength Pain Relief; Regular Strength Pain Reliever; Regular Strength QPAP; Regular Strength Sinus Medication; Regular Strength Sinus Medication-caplet; Regular Strength Tablets Bromaphen; Regular Strength Tylenol Back Pain; Regular Strength Tylenol Body Pain Night; Regular Strength Tylenol Cold Chest Congestion; Regular Strength Tylenol Cold Daytime; Regular Strength Tylenol Cold Nighttime; Regular Strength Tylenol Cold Nighttime Caplet; Regular Strength Tylenol Cold and Flu Powder; Regular Strength Tylenol Cough Suspension; Regular Strength Tylenol Cough Suspension With Decongestant; Regular Strength Tylenol Sinus Caplets; Regular Strength Tylenol Sinus Daytime; Relagesic; Relaxophen Caplets; Relief 325mg Tablets; Relief-PE; Relievol Allergy Sinus Caplets Extra Strength; Relievol Pms Extra Strength Caplets; Relievol Pms Regular Strength Tablets; Relievol Sinus Caplets Extra Strength, Non Drowsy Formula; Rexall Arthritis Pain; Rexall Daytime Nighttime Cold Flu; Rexall Daytime Nighttime Cold and Flu; Rexall Night Time Cold and Flu; Rexall Pain Relief; Rhume Et De LA Grippe (extra-fort); Rhume Extra Fort Jour; Rhume Extra Fort Nuit; Ringl; Rite Aid Daytime Severe Cold and Cough Relief; Rite Aid Nighttime Severe Cold and Cough Relief; Rite Aid day time severe cold and cough berry infused with menthol and green tea flavors; Rite Aid night time severe cold and cough honey lemon with chamomile and white tea flavors; Riva-tramadol/acet; Rivacocet; Robaxacet; Robaxacet Extra Strength; Robaxacet Tablets; Robaxacet-8; Robigesic Elixir 80mg/ml; Robitussin Complete Daytime; Robitussin Complete Nighttime; Robitussin Cough, Cold & Flu Liqui-gels; Robitussin Honey Flu; Robitussin Maximum Strength Severe Cough Plus Sore Throat; Robitussin Peak Cold Daytime Cold Plus Flu; Robitussin Peak Cold Nasal Relief; Robitussin Peak Cold Nighttime Cold Plus Flu; Robitussin Peak Cold Nighttime Multi-symptom Cold; Robitussin Peak Cold Nighttime Nasal Relief; Robitussin Severe Multi-Symptom Cough Cold Flu; Robitussin Severe Multi-Symptom Cough Cold Flu Nighttime; Robitussin Total Cough, Cold & Flu; Robitussin Total Cough, Cold & Flu Extra Strength; Rompe Pecho Max Multi Symptoms; Rounox Avec Codeine 15tab; Rounox Codeine 30 Tab; Rounox Codeine 60 Tab; Rounox Tab 325mg; Routec and Codeine 30 - Tab; Roxicet; Roxicet Tab; Rugby Acetaminophen; Rugby Acetaminophen 500 mg and Diphenhydramine HCl 25 mg Pain Reliever/Sleep Aid; Rx Act Cold Head Congestion; Rx Act Cough and Sore Throat; Rx Act Flu and Severe Cold and Cough Nighttime; Rx Act Flu and Sore Throat; Rx Act Flu and severe cold and cough daytime; Rx Act Nighttime Cold Flu Relief Multi Symptom; Rx Act Pain Relief; Rx Act Pain Relief Extra Strength; Rx Act Pain Relief Infants; Rx Act Pain Relief PM Extra Strengh Rapid Release; Rx Act Pain Relief Rapid Release; Rx Act Pain Relief Regular Strength; Rx Act headache formula added strength; Rx Act pain relief extra strength; Rx Act sinus congestion and pain; SMITH BROS NIGHT TIME COUGH and CONGESTION; SMITH BROS NON-DROWSY DAY TIME COLD and FLU; SMITH BROS NON-DROWSY MULTI-SYMPTOM COLD and FLU; SP Pharma; SUDAFED PE Pressure PLUS Pain PLUS Mucus; SUDAFED PE Pressure Plus Pain; Safeway Daytime Cold and Flu Relief; Safeway Nighttime Cold and Flu; SanaTos COLD Multi-Symptom; SanaTos Severe Cold and Cough Day Time; SanaTos Severe Cold and Cough Nighttime; Sanaflu Nighttime Xtreme Multi Symptom Cold Flu Relief Cherry Flavor; Sanaflu Xtra; Sanatos Day; Sanatos Night; Sandoz Oxycodone/acetaminophen; Scot-Tussin Original Multi-Symptom Cold and Allergy Relief; Scot-Tussin Original SF Multi-Symptom; Sed-max; Sedalmex Pain Reliever; Sever Daytime Cold and Flu and Sever Nighttime Cold and Flu; Severe Allergy; Severe Allergy And Sinus Headache; Severe Allergy And Sinus Headache Maximum Strength; Severe Allergy Plus Sinus Headache; Severe Allergy Plus Sinus Headache Maximum Strength; Severe Allergy Relief Plus Sinus Headache; Severe Cold; Severe Cold Cough and Flu; Severe Cold Cough and Flu Relief Daytime; Severe Cold Cough and Flu Relief Nighttime; Severe Cold Daytime Cold and Flu Nighttime; Severe Cold Daytime Multi-Symptom Non-Drowsy; Severe Cold Head Congestion; Severe Cold Multi Symptom; Severe Cold Multi-Symptom; Severe Cold PE; Severe Cold PE Multi-Symptom; Severe Cold Plus Flu Daytime Nighttime; Severe Cold Relief; Severe Cold Relief PE; Severe Cold and Cough Daytime; Severe Cold and Cough Night Time; Severe Cold and Cough Relief Daytime; Severe Cold and Cough Relief Nighttime; Severe Cold and Flu; Severe Cold and Flu Daytime; Severe Cold and Flu Daytime/nighttime; Severe Cold and Flu Maximum Strength, Daytime, Non-Drowsy; Severe Cold and Flu Night time; Severe Cold and Flu Nighttime Daytime; Severe Cold and Flu Relief; Severe Cold and Flu Relief Nighttime; Severe Cold and Flu nighttime; Severe Cold and Mucus; Severe Cold, Cold and Flu Daytime, Nighttime, Maximum Strength; Severe Cold, Cold and Flu Maximum Strength, Daytime, Nightime; Severe Congestion Relief Maximum Strength Sinus; Severe Congestion and Cold Maximum Strength; Severe Congestion and Cold Maximum Strength/ Multi-Symptom; Severe Congestion and Cold Relief Maximum Strength, Multi Symptom; Severe Congestion and Cough, Cold and Flu Daytime and Nighttime; Severe Congestion and Cough, Cold and Flu Daytime, Nighttime; Severe Congestion and Cough/ Cold and Flu Daytime/nighttime; Severe Congestion and Cough/Cold and Flu Daytime/Nighttime/Maximum Strength; Severe Cough and Cold; Severe Daytime; Severe Multi-Symptom Cold; Severe Nighttime; Severe Nighttime Cold and Flu; Severe Nighttime Severe Daytime; Severe Sinus; Severe Sinus Congestion; Severe Sinus Congestion Allergy and Cough Formula; Severe Sinus Congestion Relief Maximum Strength; Severe Sinus Congestion and Pain; Severe Sinus Congestion and Pain Daytime; Severe Sinus Congestion and Pain Non-Drowsy, Daytime; Severe Sinus Daytime, Non-Drowsy; Severe Sinus Pain and Congestion Daytime; Severe Wal Tussin CF Max; Severe cold and cough relief; Severe cold and flu Nighttime; Severe sinus Congestion Relief; ShopRite Allergy; ShopRite Arthritis Pain; ShopRite Childrens Acetaminophen; ShopRite Childrens Multi Symptom Cold Relief; ShopRite Cold Multi Symptom; ShopRite Day Calm; ShopRite Day Calm Severe; ShopRite DayTime Flu Plus Severe Cold And Cough; ShopRite Infants Acetaminophen; ShopRite Migraine Formula; ShopRite Ni Calm; ShopRite Nighttime Flu Plus Severe Cold and Cough; ShopRite Non Aspirin; ShopRite Non-Aspirin; ShopRite Pain Relief; ShopRite Pain Relief PM; ShopRite Severe Cold; ShopRite non aspirin; Shoprite Acetaminophen; Shoprite Congestion and Pain; Shoprite Day Calm Severe; Shoprite Ni Calm; Shoprite Non Aspirin; Shoprite Sinus Congestion and Pain; Signature Care Childrens Pain Relief; Signature Care Migraine Relief; Signature Care Nighttime Severe Cold and Flu Relief; Signature Care Non drowsy Daytime Severe Cold and Flu Relief; Signature Care Pain Relief; Signature Care daytime nighttime severe cold and flu relief; Signature Care severe cold cough and flu Nighttime; Simply Right Acetaminophen; Simply Right Arthritis Pain; Simply Right Night Time; Sine Off Maximum Strength; Sine Off Nd Extra Strength Caplet; Sine Off Sinus/cold Medicine; Sine-off Allergy Tab; Sine-off N.D. Tab; Sine-off N.D. Tablet; Sinex; Sinex Daytime Sinus; Sinex Nighttime Sinus; Sinu-Phen Plus; Sinugex 38; Sinus; Sinus Congestion And Pain Daytime; Sinus Congestion and Pain; Sinus Congestion and Pain Day, Non-Drowsy; Sinus Congestion and Pain Daytime; Sinus Congestion and Pain Daytime Nighttime; Sinus Congestion and Pain Daytime Non Drowsy; Sinus Congestion and Pain Daytime Non-Drowsy; Sinus Congestion and Pain Daytime Non-Drowsy Severe; Sinus Congestion and Pain Daytime, Non-drowsy; Sinus Congestion and Pain Daytime/Nighttime; Sinus Congestion and Pain Nighttime; Sinus Congestion and Pain Non Drowsy; Sinus Congestion and Pain Non-Drowsy; Sinus Congestion and Pain Non-Drowsy, Daytime; Sinus Congestion and Pain Relief; Sinus Congestion and Pain Relief Non-Drowsy; Sinus Congestion and Pain Relief Non-Drowsy, Daytime; Sinus Congestion and Pain Relief Non-Drowsy/Daytime; Sinus Congestion and Pain Severe; Sinus Congestion and Pain Severe Daytime,Non-Drowsy; Sinus Congestion and Pain daytime nighttime; Sinus Day/night Extra Strength; Sinus Daytime; Sinus Extra Fort Jour; Sinus Extra Fort Nuit; Sinus Headache Maximum Strength; Sinus Headache PE; Sinus Headache PE Maximum Strength; Sinus Headache PE Non- Drowsy Maximum Strength; Sinus Headache PEMaximum Strength Non-Drowsy Maximum Strength Non-Drowsy; Sinus Headache and Pain Day, Non-drowsy; Sinus Medication; Sinus Medication Day & Night; Sinus Medication Day Regular Tablets; Sinus Medication Day Regular Tablets PE; Sinus Medication Daytime Relief; Sinus Medication Extra Strength Daytime; Sinus Medication Extra Strength Night Time; Sinus Medication Night Tablets; Sinus Nighttime; Sinus Nighttime Extra Strength Caplets; Sinus PE Pressure plus Pain MAXIMUM STRENGTH; Sinus PE Pressure, Pain and Cold Daytime, Non-Drowsy; Sinus PE Pressure, Pain and Mucus; Sinus PE Pressure, Pain plus Cough Multi-Symptom; Sinus Pain; Sinus Pain and Congestion; Sinus Pain and Congestion Daytime; Sinus Pain and Congestion Nighttime; Sinus Pain and Nasal Congestion Relief; Sinus Pressure Maximum Strength; Sinus Pressure Pain Maximum Strength, Non-Drowsy; Sinus Pressure and Pain; Sinus Pressure and Pain Maximum Strength; Sinus Pressure and Pain PE Maximum Strength; Sinus Pressure and Pain Relief extra strength; Sinus Relief; Sinus Relief Congestion and Cough Maximum Strength; Sinus Relief Congestion and Pain - Daytime and Nighttime; Sinus Relief Congestion and Pain Daytime; Sinus Relief Congestion and Pain Nighttime; Sinus Relief Congestion and Pain Severe; Sinus Relief Daytime; Sinus Relief Daytime Nighttime; Sinus Relief Daytime, Nighttime, Maximum Strength; Sinus Relief Extra Strength Tablet; Sinus Relief Headache Nasal; Sinus Relief MAXIMUM STRENGTH; Sinus Relief Maximum Strength; Sinus Relief Maximum Strength Daytime and Nighttime Sinus Pain; Sinus Relief Nightime Caplets; Sinus Relief Non Drowsy; Sinus Relief Non-Drowsy Daytime; Sinus Relief Regular Strength Tablet; Sinus Relief Severe Congestion; Sinus Relief Severe Congestion Maximum Strength; Sinus Severe; Sinus Severe Daytime; Sinus Ultra Strength Tablet; Sinus and Allergy Regular Strength; Sinus and Congestion Relief Daytime; Sinus and Headache; Sinus and Headache Daytime; Sinus and Headache Daytime, Non-Drowsy; Sinus plus Headache Daytime and Nighttime; Sinus, Pain & Nasal Congest Relief Caplet; Sinusales Extra Fort Nuit; Sinutab Daytime/nightime Extra Strength Caplets (combo Pack); Sinutab Extra Strength Tablets; Sinutab N.D.reg Strength Tab; Sinutab N.T. Extra Strength Caplets; Sinutab N.T. Regular Strength Caplets; Sinutab Nd Extra Strength Tab; Sinutab PE Extra Strength; Sinutab PE Nd Extra Strength; Sinutab PE Nd Regular Strength; Sinutab PE Nightime; Sinutab PE Sinus and Allergy; Sinutab Regular Strength Tablets; Sinutab Sa Tab; Sinutab With Codeine Tablets; Smart Sense Arthritis Pain Relief; Smart Sense Childrens Multi Symptom Cold Relief; Smart Sense Childrens Pain Relief; Smart Sense DayTime; Smart Sense Daytime; Smart Sense Daytime Nighttime Cold and Flu; Smart Sense Flu and Severe Cold and Cough Daytime; Smart Sense Flu and Severe Cold and Cough Nighttime; Smart Sense Infants Pain Relief; Smart Sense Infants Pain and Fever; Smart Sense Migraine Formula; Smart Sense Multi Symptom Cold; Smart Sense Multi Symptom Fever and Cold Childrens; Smart Sense NightTime Cold and Flu; Smart Sense NightTime DayTime; Smart Sense Nighttime; Smart Sense Nighttime Cold and Flu Relief Multi Symptom; Smart Sense Pain Relief; Smart Sense Pain Relief 8 Hour; Smart Sense Pain Relief Childrens; Smart Sense Pain Relief Extra Strength; Smart Sense Pain Relief PM Extra Strength; Smart Sense Pain Relief childrens; Smart Sense Severe Cold; Smart Sense Severe Cold and Flu NightTime; Smart Sense Sinus; Smart Sense Sinus Relief; Smart Sense Sinus and Headache; Smart Sense arthritis pain relief; Smart Sense cold flu and sore throat; Smart Sense daytime cold and flu; Smart Sense migraine relief; Smart Sense nighttime cold and flu; Smart Sense pain relief; Smart Sense pain relief extra strength; Smart Sense sinus plus headache; Smart sense Nighttime Severe Cold and Cough Honey Lemon infused with Chamomile and White Tea Flavors; SohMed Allergy Sinus; SohMed Cold Relief; SohMed Extra Strength; SohMed Pain Relief PM; SohMed Pain Reliever; SohMed Sinus; Sol Orale D'acetaminophene 80mg/ml Enf; Solution Orale D'acetaminophene USP En Gouttes 80 mg/ml; Sore Throat & Cough Ultra Strength; Soulagement Des Douleurs Musculaires & Courbatures Extra Fort; Sound Body Childrens Pain and Fever; Sound Body Cold and Flu Relief; Sound Body Cold and Flu Relief DayTime; Sound Body Extra Strength Pain Reliever; Sound Body Pain Relief PM; Sound Body Pain Reliever; Spasmhalt-8; Staflex; Stona; Stona for Children; Stona-S; Sudafed Children's Sinus Liquid; Sudafed Cold and Cough Extra Strength Caplet; Sudafed Cold and Cough Extra Strength Caplets; Sudafed Cold and Flu Gel Caps; Sudafed Head Cold & Sinus Extra Strength Tablets; Sudafed Head Cold and Sinus Extra Strength Caplets; Sudafed PE Cold and Cough; Sudafed PE Cold and Flu Caplets; Sudafed PE Head Cold & Sinus; Sudafed PE Pressure Plus Pain Plus Cold; Sudafed PE Pressure plus Pain plus Cough; Sudafed PE Total; Sudafed Sinus & Allergy; Sudafed Sinus Complete; Sudafed Sinus Daytime; Sudafed Sinus Extra Strength; Sudafed Sinus Nighttime; Sudafed Total Cold and Flu Rapid Release; Sunmark 8 hour pain relief; Sunmark Allergy Multi Symptom; Sunmark Arthritis 8 Hour; Sunmark Arthritis Pain Relief; Sunmark Arthritis Pain Reliever; Sunmark Childrens Pain and Fever; Sunmark Cold Head Congestion; Sunmark Cold and Flu Severe; Sunmark Day time cold and flu; Sunmark Headache Relief; Sunmark Infants Pain and Fever; Sunmark Junior Rapid Melts; Sunmark Nite Time; Sunmark Nite Time D Cold and Flu; Sunmark Pain Relief Extra Strength; Sunmark Pain Reliever; Sunmark Pain Reliever Infants; Sunmark Pain Reliever PM Extra Strength; Sunmark Pain Reliever extra strength; Sunmark Tension Headache; Sunmark childrens pain and fever; Sunmark cold head congestion; Sunmark migraine relief; Sunmark nite time cold and flu; Sunmark pain and fever childrens; Sunmark pain reliever; Sunmark pain reliever extra strength; Sunmark sinus congestion and pain; Super Strength Contac Cold & Sinus Hot Medicated Drink; Suphedrine PE; Suphedrine PE Pressure plus Pain Maximum Strength, Non-Drowsy; Swift Aypanal Extra; Swift Sinus Pain; Syncol; TUSSIN CF NIGHTTIME COUGH and COLD; TYLENOL Acetaminophen Extra Strength; TYLENOL Cold Multi-Symptom Daytime; TYLENOL Cold Multi-Symptom Severe; TYLENOL Cold Plus Flu Severe; TYLENOL Cold Plus Mucus Severe; TYLENOL Extra Strength; TYLENOL Sinus Congestion And Pain Severe; TYLENOL with Codeine; Tamicode Tablets; Taminol Caplets; Tantaphen Children's Acetaminophen Suspension Liquid; Target Cold/Flu Relief; Teen Midol Complete; Teen Pms Relief Complete Caplets; Tempra; Tempra Children's Syrup; Tempra Double Strength Children's Syrup; Tempra First Tabs; Tempra First Tabs Double Strength; Tempra Infant Drops; Tencon; Tension Headache; Tension Headache Aspirin Free; Tension Headache Aspirin-Free; Tension Headache Relief; Tension Headache Relief Aspirin Free; Teva-emtec-30; Teva-oxycocet; Teva-tramadol/acetaminophen; Theracodeine-300; Theracodophen-325; Theracodophen-650; Theracodophen-750; Theracodophen-Low-90; Theraflu Cold and Flu; Theraflu Cold and Sore Throat; Theraflu Daytime Cold and Flu; Theraflu Daytime Severe Cold and Cough; Theraflu ExpressMax Daytime Nighttime Value Pack; Theraflu ExpressMax Daytime Severe Cold and Cough; Theraflu ExpressMax Flu, Cough, and Sore Throat; Theraflu ExpressMax Nighttime Severe Cold and Cough; Theraflu ExpressMax Severe Cold and Flu Caplets; Theraflu ExpressMax Severe Cold and Flu Syrup; Theraflu Expressmax Daytime Severe Cold and Cough and Theraflu Expressmax Nighttime Severe Cold and Cough; Theraflu Flu Cold and Cough Medicine; Theraflu Flu and Chest Congestion; Theraflu Flu and Sore Throat; Theraflu Max-D; Theraflu Multi Symptom Severe Cold; Theraflu Nighttime Cold and Flu; Theraflu Nighttime Multi-Symptom Severe Cold Powder; Theraflu Nighttime Severe Cold and Cough; Theraflu Sinus and Cold; Theraflu Sugar Free Nightime Severe Cold and Cough; Theraflu Warming Relief Cold and Chest Congestion; Theraflu Warming Relief Daytime Multi-Symptom Cold Caplets; Theraflu Warming Relief Daytime Severe Cold And Cough; Theraflu Warming Relief Flu and Sore Throat; Theraflu Warming Relief Nighttime Multi-Symptom Cold Caplets; Theraflu Warming Relief Nighttime Severe Cold And Cough; Thrulife Extra Strength Headache Relief; Time-gesic; Top Care Day Time Multi Symptom Relief; Top Care Flu and Sore Throat; TopCare Cold Max; TopCare Cold NightTime Multi Symptom; TopCare Cold and Sore Throat Lemon Flavor; TopCare Daytime Severe Cold and Cough Berry infused with Menthol and Green Tea flavors; TopCare Mucus Relief and Cold and Flu; TopCare Multi Symptom Severe Cold; TopCare Nighttime Severe Cold and Cough honey lemon infused with chamomile and white tea flavors; TopCare Nite Time; TopCare Nite Time Cold and flu; TopCare Pain Relief Cold Nightttime; TopCare Pain Relief Rapid Release; TopCare day time severe cold and cough berry infused with menthol and green tea flavors; TopCare night time severe cold and cough honey lemon infused with chamomile and white tea flavors; Topcare 8 Hour Pain Relief; Topcare Allergy Multi Symptom; Topcare Arthritis Pain; Topcare Arthritis Pain Relief; Topcare Arthritis Pain Relief Temporary Minor; Topcare Childrens Pain Relief; Topcare Childrens Pain and Fever; Topcare Clear Time; Topcare Cold; Topcare Cold Head Congestion; Topcare Cold Head Congestion Nighttime; Topcare Cold Head Congestion Severe; Topcare Cold Multi Symptom; Topcare Cold Multi Symptom Severe; Topcare Cold and Cough; Topcare Cold and Flu; Topcare Cold and Flu Night Time; Topcare Cold and Sore Throat Lemon Flavor; Topcare Cough and Sore Throat; Topcare Day Time; Topcare Day Time Cold and Flu; Topcare Day Time Cold and Flu Relief Multi Symptom Relief; Topcare Day Time Cold and Flu Severe; Topcare Day Time Nite Time; Topcare Day Time Nite Time Cold and Flu; Topcare Day Time Nite Time Cold and Flu Relief; Topcare Day time cold and flu relief; Topcare DayTime; Topcare Daytime Nighttime Clear Time; Topcare Fever Reducer; Topcare Flu and Severe Cold and Cough; Topcare Flu and Severe Cold and Cough Daytime; Topcare Headache Formula; Topcare Headache PM Formula; Topcare Infants Pain and Fever; Topcare Migraine Formula; Topcare Mucus Relief Cold Flu and Sore Throat; Topcare Mucus Relief Severe Congestion and Cold; Topcare Mucus Relief cold and sinus; Topcare Nite Time Cold and Flu; Topcare Nite Time Cold and Flu Relief; Topcare Nite Time Cold and Flu Relief Multi Symptom Relief; Topcare Nite Time Cold and flu relief; Topcare Nite Time D; Topcare Nite Time Day Time Cold and Flu; Topcare Nite Time Day Time Cold and Flu Relief; Topcare Nite Time Multi Symptom Relief; Topcare Pain Relief; Topcare Pain Relief Extra Strength; Topcare Pain Relief Infants; Topcare Pain Relief PM; Topcare Pain Relief PM Extra Strength; Topcare Pain and Fever; Topcare Severe Sinus Congestion; Topcare Sinus Congestion and Pain; Topcare Sinus Relief; Topcare Sinus Relief Day Time Night Time; Topcare Tussin CF; Topcare childrens pain and fever; Topcare childrens pain relief; Topcare infants pain relief; Topcare mucus relief cold flu and sore throat; Topcare pain and fever; Topcare pain and fever childrens; Topcare pain relief PM extra strength non habit forming; Topcare pain relief extra strength; Topcare pain relief extra strength easy to swallow; Topcare sinus relief pressure and pain; Topco Arthritis 8 Hour; Topco tussin cf max; Total Cold & Flu; Total Cold & Flu Combo; Total Cold and Flu; Total Cold and Flu Extra Strength; Total Flu; Toux Rhume Et Grippe (extra-fort); Tramacet; Tramadal Hydrochloride and Acetaminophen; Tramadol / Acetaminophen; Tramadol Acetaminophen; Tramadol HCl and Acetaminophen; Tramadol Hydrochloride and Acetaminophen; Tramadol hydrochloride and acetaminophen; Tramadol-acet; Tramadol/acet; Tramapap; Tramaphen-odan; Trendar Pms Caplet; Trendar Pms Tablets; Trezix; Triaminic Cold Cough and Fever; Triaminic Cough and Sore Throat; Triaminic Cough and Sore Throat Softchews; Triaminic Fever & Cough; Triaminic Fever Reducer; Triaminic Infants Fever Reducer Pain Reliever - Bubblegum; Triaminic Infants Fever Reducer Pain Reliever - Grape; Triaminic Multi-Symptom Fever; Triaminic Multi-Symptom Fever and Cold; Triaminic Softchews Throat Pain & Cough; Triaminic Total Cold With Cough & Fever Relief; Triaminic cough and sore throat; Triaminicin Colds & Flu Caplets; Triatec Fort/strong Ultra Efficace/ultra Relief; Triatec-30; Triatec-8; Triatec-8 Fort; Tukol MAX ACTION Cold, Sore Throat and Cough; Tukol Max Action Cold Sore Throat and Cough; Tussnex FM Cold and Sinus; Tussnex FM Cold, Flu and Sore Throat; Tylenol; Tylenol 8 HR Arthritis Pain; Tylenol 8HR; Tylenol Advanced Headache; Tylenol Allergy; Tylenol Arthritis Pain 8 Hour; Tylenol Childrens Elixir 160mg/5ml; Tylenol Cold & Flu Daytime; Tylenol Cold & Flu Nighttime; Tylenol Cold Max Day; Tylenol Cold Max Night; Tylenol Cold Multi-symptom; Tylenol Cold Multi-symptom Daytime; Tylenol Cold Nightime Rapid Release; Tylenol Cold Plus Flu Severe; Tylenol Cold Plus Flu Severe Day/night; Tylenol Cold Plus Head Congestion Severe; Tylenol Cold Plus Sore Throat Extra Strength; Tylenol Cold Rapid Release; Tylenol Cold and Flu Daytime; Tylenol Cold and Flu Nighttime; Tylenol Cold plus Flu Severe and Tylenol Cold Max; Tylenol Complete Cold, Cough & Flu Daytime; Tylenol Complete Cold, Cough & Flu Nighttime; Tylenol Complete Cold, Cough & Flu Plus Mucus Relief; Tylenol Cough; Tylenol Extended Relief Caplets; Tylenol Extra Strength; Tylenol Extra Strength Gelcaps Tab 500mg; Tylenol Extra Strength Tab 500mg; Tylenol Extra-strength Caplets 500mg; Tylenol Flu Daytime; Tylenol Flu Nighttime; Tylenol Liquid Gels; Tylenol Muscle Aches & Body Pain; Tylenol No 1 Tab; Tylenol No.1 Caplets; Tylenol No.1 Forte Caplets; Tylenol No1 Forte Tablets With Codeine; Tylenol PM; Tylenol PM Extra Strength; Tylenol Regular Strength; Tylenol Regular Strength Caplets 325mg; Tylenol Regular Strength Tab 325mg; Tylenol Sinus Congestion and Pain Daytime; Tylenol Sinus Daytime; Tylenol Sinus Nighttime; Tylenol Sinus Plus Headache Day; Tylenol Sinus Plus Mucous Relief; Tylenol Sinus Severe; Tylenol Ultra Relief; Tylenol W Codeine No2 Tab; Tylenol W Codeine No3 Tab; Tylenol W Codeine No4 Tab; Tylenol With Codeine Elixir; Tylenol With Codeine No. 2 - Tab; Tylenol With Codeine No. 3 - Tab; Tylenol With Codeine No. 4; Tylenol for Your Teen; Tylo Extra Strength; Tylokid; Ultra Headache Relief; Ultra Strength Neocitran Flu Day With Mucus Relief; Ultracet; Unisom PM Pain Nighttime Sleep Aid and Pain Reliever; Up and Up Acetaminophen; Up and Up Acetaminophen Extra Strength; Up and Up Acetaminophen Infants; Up and Up Acetaminophen PM; Up and Up Acetaminophen PM Extra Strength; Up and Up Arthritis Pain Relief; Up and Up Childrens Acetaminophen; Up and Up Childrens acetaminophen; Up and Up Cold Flu Relief; Up and Up Cold Flu Relief Day Night; Up and Up Cold Flu Relief Multi Symptom Day; Up and Up Cold Flu Relief multi symptom night; Up and Up Cold Relief; Up and Up Cold and Flu Relief; Up and Up Cold and Flu Relief Multi Symptom Day and Night Combo Pack; Up and Up Cold and Head Congestion; Up and Up Daytime Cold and Flu; Up and Up Daytime Nighttime Cold and Flu; Up and Up Daytime Severe Cold Nighttime Cold and Flu; Up and Up Dye Free Infants Acetaminophen; Up and Up Dye Free Infants Pain and Fever Acetaminophen; Up and Up Fast Mucus Relief Severe Cold; Up and Up Flu and Severe Cold and Cough Relief; Up and Up Infants Acetaminophen; Up and Up Juniors Acetaminophen; Up and Up Migraine Relief; Up and Up Mucus Relief; Up and Up Mucus Relief Cold Flu and Sore Throat; Up and Up Mucus Relief Cold and Sinus; Up and Up Mucus Relief Severe Congestion and Cold; Up and Up Nighttime Cold and Flu; Up and Up Nighttime Daytime Cold and Flu; Up and Up Nighttime Flu and Severe Cold and Cough; Up and Up Sinus Congestion and Pain; Up and Up Temporary Minor Arthritis Pain Relief; Up and Up acetaminophen; Up and Up childrens acetaminophen; Up and Up infants acetaminophen; Up and Up mucus relief cold, flu and sore throat; Up and Up severe cold and flu; Up and Up severe cold and flu daytime; Uricalm Intensive; V-lanol; Valumeds Extra Strength Pain Relief; Vanatol LQ; Vanatol S; Vanquish; Vica-cet; Vicks Alcohol Free NyQuil Cold and Flu Nighttime Relief; Vicks Custom Care Body Aches; Vicks Custom Care Cough & Cold PM; Vicks DayQuil Cold and Flu; Vicks DayQuil Cold and Flu Multi-Symptom Relief; Vicks DayQuil HBP; Vicks DayQuil Severe Cold and Flu; Vicks DayQuil Tropical and Vicks NyQuil Cherry Cough; Vicks DayQuil and Vicks NyQuil Cherry Cold and Flu; Vicks DayQuil and Vicks NyQuil Cold and Flu; Vicks DayQuil and Vicks NyQuil Cold and Flu Multi-Symptom Relief/Cold and Flu Nighttime Relief; Vicks DayQuil and Vicks NyQuil Severe Cold and Flu; Vicks Dayquil Cold & Flu Multi-symptom Relief Liquicaps; Vicks Dayquil Complete Cold & Flu Caplets; Vicks Dayquil Complete Cold & Flu Liquid; Vicks Dayquil Liquicaps; Vicks Dayquil Sinus Liquicaps; Vicks Formula 44 Nighttime Cough and Cold; Vicks Formula 44m Liq; Vicks NyQuil Cold and Flu; Vicks NyQuil Cold and Flu Nighttime Relief; Vicks NyQuil Cold and Flu Nighttime Relief and Vicks Childrens NyQuil Cold and Cough; Vicks NyQuil D Cold And Flu Nighttime Relief; Vicks NyQuil HBP Cold and Flu; Vicks NyQuil Severe Cold and Flu; Vicks Nyquil Adult Nighttime Colds Medicine; Vicks Nyquil Cold & Flu Nighttime Relief; Vicks Nyquil Complete Cold & Flu; Vicks Nyquil Complete Cold & Flu Caplets; Vicks Nyquil Liquicaps; Vicks Nyquil Liquicaps Cold & Flu Multi-symptom Relief; Vicks Nyquil Sinus Liquicaps; Vicks QlearQuil Daytime Sinus and Congestion; Vicks QlearQuil Daytime Sinus and Congestion and Nighttime Sinus and Congestion; Vicks QlearQuil Nighttime Sinus and Congestion; Vicks Sinex; Vicodin; Vicodin ES; Vicodin HP; Vicodin Hp; Viva Cold & Flu All In One Relief Caplets; Wal Flu Flu and Sore Throat; Wal Flu Severe Cold and Cough; Wal Flu Severe Cold and Cough Daytime; Wal Tussin CF Max Multi Symptom Cough Cold and Flu; Wal-Dryl Allergy Plus Cold; Wal-Dryl Maximum Strength; Wal-Nadol Extra Strength; Wal-Nadol PM; Wal-Phed PE; Wal-Phed PE Maximum Strength, Non-Drowsy; Wal-Phed PE Multi Symptom; Wal-Phed PE Pressure plus Pain Maximum Strength Non-Drowsy; Wal-Phed PE Pressure plus Pain plus Cold Daytime, Nighttime, Multi-Symptom; Wal-Phed PE, Multi-Symptom; Wal-Phed PE, Multi-Symptom, Non-Drowsy; Walgreen Nighttime Cold and Flu Relief; Walgreens Daytime Wal-Flu Severe Cold and Cough Berry infused with Menthol and Green Tea flavors; Walgreens Daytime non-drowsy cold multi-symptom for adults; Walgreens Severe Cold Multi-Symptom For Adults; Walgreens Severe Warming Cold and Flu For Adults; Walgreens Sugar Free Nighttime Wal-Flu severe cold and cough Natural honey lemon flavor; Walgreens Wal-Flu Cold and Sore Throat Lemon Flavor; Walgreens night time wal-flu severe cold and cough honey lemon flavor infused with chamomile and white tea flavors; Wampole-acetaminophen/codeine/caffeine; Welby Acetaminophen; Welby Day Time Cold and Flu; Welby Health Acetaminophen; Welby Infants Acetaminophen; Welby Nighttime Cold and Flu; Well At Walgreens Multi-Symptom Severe Cold Green Tea and Honey Lemon flavors; Western Classics Acetaminophen USP for Child; Western Family Daytime Severe Cold and Cough Berry infused with Menthol and Green Tea flavors; Western Family Nighttime Severe Cold and Cough honey lemon infused with chamomile and white tea flavors; WinCo Foods Daytime Severe Cold and Cough Berry infused with Menthol and Green Tea flavors; WinCo Foods Nighttime Severe Cold and Cough honey lemon infused with chamomile and white tea flavors; Winco Foods Multi-Symptom Severe Cold Green Tea and Honey Lemon flavors; Woodward's Pain and Fever Drops for Infants; Woodward's Pain and Fever Elixir; XL-dol; Xartemis XR; Xl3 Xtra; Xodol; Xolox; Yinchiao; Zamicet; Zebutal; Zee Pain Aid; Zee Unaspirin ES; Zflex; Zicam; Zicam Multi-symptom Cold & Flu Daytime; Zicam Multi-symptom Cold & Flu Nighttime; Zydone; Zyfrel; allergy sinus PE; basic care acetaminophen PM; childrens Multi Symptom Fever and Cold; cold and cough sinus relief PE NON-DROWSY; good neighbor pharmacy Night time; good neighbor pharmacy Pain and Fever; good sense DayTime Night Time; hybrid CF; multi-symptom cold relief Daytime, Nighttime; pain Relief childrens; rx act Pain Relief PM; rx act pain relief 8 HR; sanaflu Night-Time Xtreme Multi-Symptom Cold/Flu Relief Cherry Flavor; severe cold and sinus relief PE; simply right Night Time; sunmark Cold; tussin severe multi symptom cough cold plus flu CF MAX

>  <SECONDARY_ACCESSION_NUMBERS>  (1) 
APRD00252

>  <SMILES>  (1) 
CC(=O)NC1=CC=C(O)C=C1

>  <SYNONYMS>  (1) 
4-(Acetylamino)phenol; 4-acetamidophenol; 4'-hydroxyacetanilide; Acenol; acetaminofén; Acetaminophen; acétaminophène; APAP; N-acetyl-p-aminophenol; p-acetamidophenol; p-acetaminophenol; p-Acetylaminophenol; p-hydroxy-acetanilid; p-hydroxyacetanilide; p-hydroxyphenolacetamide; Paracétamol; Paracetamol; Paracetamolum

$$$$
