622
     RDKit          2D

 64 66  0  0  1  0  0  0  0  0999 V2000
    6.6515   -0.9818    0.0000 O   0  0  0  0  0  0  0  0  0  0  0  0
   10.9383   -0.9818    0.0000 O   0  0  0  0  0  0  0  0  0  0  0  0
    7.3659    0.2558    0.0000 O   0  0  0  0  0  0  0  0  0  0  0  0
   10.2239    0.2558    0.0000 O   0  0  0  0  0  0  0  0  0  0  0  0
   10.2239    2.7308    0.0000 O   0  0  0  0  0  0  0  0  0  0  0  0
   10.9383    1.4933    0.0000 O   0  0  0  0  0  0  0  0  0  0  0  0
    8.7949   -2.2193    0.0000 N   0  0  0  0  0  0  0  0  0  0  0  0
    4.5080   -0.5693    0.0000 N   0  0  0  0  0  0  0  0  0  0  0  0
   10.2239    1.9058    0.0000 N   0  0  0  0  0  0  0  0  0  0  0  0
    8.7949   -0.5693    0.0000 C   0  0  0  0  0  0  0  0  0  0  0  0
    8.0804   -0.9818    0.0000 C   0  0  0  0  0  0  0  0  0  0  0  0
    9.5094   -0.9818    0.0000 C   0  0  0  0  0  0  0  0  0  0  0  0
    8.7949    0.2558    0.0000 C   0  0  0  0  0  0  0  0  0  0  0  0
    8.0804   -1.8068    0.0000 C   0  0  0  0  0  0  0  0  0  0  0  0
    9.5094   -1.8068    0.0000 C   0  0  0  0  0  0  0  0  0  0  0  0
    7.3659   -0.5693    0.0000 C   0  0  0  0  0  0  0  0  0  0  0  0
    9.5094    0.6683    0.0000 C   0  0  0  0  0  0  0  0  0  0  0  0
    8.0804    0.6683    0.0000 C   0  0  0  0  0  0  0  0  0  0  0  0
    7.3659   -2.2193    0.0000 C   0  0  0  0  0  0  0  0  0  0  0  0
   10.2239   -0.5693    0.0000 C   0  0  0  0  0  0  0  0  0  0  0  0
   10.2239   -2.2193    0.0000 C   0  0  0  0  0  0  0  0  0  0  0  0
    5.2224   -0.9818    0.0000 C   0  0  0  0  0  0  0  0  0  0  0  0
    5.9370   -0.5693    0.0000 C   0  0  0  0  0  0  0  0  0  0  0  0
    9.5094    1.4933    0.0000 C   0  0  0  0  0  0  0  0  0  0  0  0
    8.0804    1.4933    0.0000 C   0  0  0  0  0  0  0  0  0  0  0  0
    3.7935   -0.9818    0.0000 C   0  0  0  0  0  0  0  0  0  0  0  0
    8.7949    1.9058    0.0000 C   0  0  0  0  0  0  0  0  0  0  0  0
    3.0791   -0.5693    0.0000 C   0  0  0  0  0  0  0  0  0  0  0  0
    4.5080    0.2558    0.0000 C   0  0  0  0  0  0  0  0  0  0  0  0
    2.3645   -0.9818    0.0000 C   0  0  0  0  0  0  0  0  0  0  0  0
    3.0791    0.2558    0.0000 C   0  0  0  0  0  0  0  0  0  0  0  0
   11.6529   -0.5693    0.0000 C   0  0  0  0  0  0  0  0  0  0  0  0
    1.6500   -0.5693    0.0000 C   0  0  0  0  0  0  0  0  0  0  0  0
    2.3645    0.6683    0.0000 C   0  0  0  0  0  0  0  0  0  0  0  0
    1.6500    0.2558    0.0000 C   0  0  0  0  0  0  0  0  0  0  0  0
    0.0000    0.0000    0.0000 H   0  0  0  0  0  0  0  0  0  0  0  0
    0.0000    0.0000    0.0000 H   0  0  0  0  0  0  0  0  0  0  0  0
    0.0000    0.0000    0.0000 H   0  0  0  0  0  0  0  0  0  0  0  0
    0.0000    0.0000    0.0000 H   0  0  0  0  0  0  0  0  0  0  0  0
    0.0000    0.0000    0.0000 H   0  0  0  0  0  0  0  0  0  0  0  0
    0.0000    0.0000    0.0000 H   0  0  0  0  0  0  0  0  0  0  0  0
    0.0000    0.0000    0.0000 H   0  0  0  0  0  0  0  0  0  0  0  0
    0.0000    0.0000    0.0000 H   0  0  0  0  0  0  0  0  0  0  0  0
    0.0000    0.0000    0.0000 H   0  0  0  0  0  0  0  0  0  0  0  0
    0.0000    0.0000    0.0000 H   0  0  0  0  0  0  0  0  0  0  0  0
    0.0000    0.0000    0.0000 H   0  0  0  0  0  0  0  0  0  0  0  0
    0.0000    0.0000    0.0000 H   0  0  0  0  0  0  0  0  0  0  0  0
    0.0000    0.0000    0.0000 H   0  0  0  0  0  0  0  0  0  0  0  0
    0.0000    0.0000    0.0000 H   0  0  0  0  0  0  0  0  0  0  0  0
    0.0000    0.0000    0.0000 H   0  0  0  0  0  0  0  0  0  0  0  0
    0.0000    0.0000    0.0000 H   0  0  0  0  0  0  0  0  0  0  0  0
    0.0000    0.0000    0.0000 H   0  0  0  0  0  0  0  0  0  0  0  0
    0.0000    0.0000    0.0000 H   0  0  0  0  0  0  0  0  0  0  0  0
    0.0000    0.0000    0.0000 H   0  0  0  0  0  0  0  0  0  0  0  0
    0.0000    0.0000    0.0000 H   0  0  0  0  0  0  0  0  0  0  0  0
    0.0000    0.0000    0.0000 H   0  0  0  0  0  0  0  0  0  0  0  0
    0.0000    0.0000    0.0000 H   0  0  0  0  0  0  0  0  0  0  0  0
    0.0000    0.0000    0.0000 H   0  0  0  0  0  0  0  0  0  0  0  0
    0.0000    0.0000    0.0000 H   0  0  0  0  0  0  0  0  0  0  0  0
    0.0000    0.0000    0.0000 H   0  0  0  0  0  0  0  0  0  0  0  0
    0.0000    0.0000    0.0000 H   0  0  0  0  0  0  0  0  0  0  0  0
    0.0000    0.0000    0.0000 H   0  0  0  0  0  0  0  0  0  0  0  0
    0.0000    0.0000    0.0000 H   0  0  0  0  0  0  0  0  0  0  0  0
    0.0000    0.0000    0.0000 H   0  0  0  0  0  0  0  0  0  0  0  0
  1 16  1  0
  1 23  1  0
  2 20  1  0
  2 32  1  0
  3 16  2  0
  4 20  2  0
  5  9  1  0
  6  9  2  0
  7 14  1  0
  7 15  1  0
  8 22  1  0
  8 26  1  0
  8 29  1  0
  9 24  1  0
 10 11  1  0
 10 12  1  0
 10 13  1  0
 11 14  2  0
 11 16  1  0
 12 15  2  0
 12 20  1  0
 13 17  2  0
 13 18  1  0
 14 19  1  0
 15 21  1  0
 17 24  1  0
 18 25  2  0
 22 23  1  0
 24 27  2  0
 25 27  1  0
 26 28  1  0
 28 30  2  0
 28 31  1  0
 30 33  1  0
 31 34  2  0
 33 35  2  0
 34 35  1  0
  7 36  1  0
 10 37  1  0
 17 38  1  0
 18 39  1  0
 19 40  1  0
 19 41  1  0
 19 42  1  0
 21 43  1  0
 21 44  1  0
 21 45  1  0
 22 46  1  0
 22 47  1  0
 23 48  1  0
 23 49  1  0
 25 50  1  0
 26 51  1  0
 26 52  1  0
 27 53  1  0
 29 54  1  0
 29 55  1  0
 29 56  1  0
 30 57  1  0
 31 58  1  0
 32 59  1  0
 32 60  1  0
 32 61  1  0
 33 62  1  0
 34 63  1  0
 35 64  1  0
M  CHG  2   5  -1   9   1
M  END
>  <ALOGPS_LOGP>  (1) 
4.34

>  <ALOGPS_LOGS>  (1) 
-5.29

>  <ALOGPS_SOLUBILITY>  (1) 
2.47e-03 g/l

>  <DATABASE_ID>  (1) 
DB00622

>  <DATABASE_NAME>  (1) 
drugbank

>  <DRUGBANK_ID>  (1) 
DB00622

>  <DRUG_GROUPS>  (1) 
approved

>  <EXACT_MASS>  (1) 
479.205635675

>  <FORMULA>  (1) 
C26H29N3O6

>  <GENERIC_NAME>  (1) 
Nicardipine

>  <INCHI_IDENTIFIER>  (1) 
InChI=1S/C26H29N3O6/c1-17-22(25(30)34-4)24(20-11-8-12-21(15-20)29(32)33)23(18(2)27-17)26(31)35-14-13-28(3)16-19-9-6-5-7-10-19/h5-12,15,24,27H,13-14,16H2,1-4H3

>  <INCHI_KEY>  (1) 
ZBBHBTPTTSWHBA-UHFFFAOYSA-N

>  <INTERNATIONAL_BRANDS>  (1) 
Cardene

>  <JCHEM_ACCEPTOR_COUNT>  (1) 
6

>  <JCHEM_AVERAGE_POLARIZABILITY>  (1) 
49.95135467285003

>  <JCHEM_BIOAVAILABILITY>  (1) 
1

>  <JCHEM_DONOR_COUNT>  (1) 
1

>  <JCHEM_FORMAL_CHARGE>  (1) 
0

>  <JCHEM_GHOSE_FILTER>  (1) 
0

>  <JCHEM_IUPAC>  (1) 
3-{2-[benzyl(methyl)amino]ethyl} 5-methyl 2,6-dimethyl-4-(3-nitrophenyl)-1,4-dihydropyridine-3,5-dicarboxylate

>  <JCHEM_LOGP>  (1) 
3.558611921333333

>  <JCHEM_MDDR_LIKE_RULE>  (1) 
1

>  <JCHEM_NUMBER_OF_RINGS>  (1) 
3

>  <JCHEM_PHYSIOLOGICAL_CHARGE>  (1) 
1

>  <JCHEM_PKA_STRONGEST_BASIC>  (1) 
8.180525795176274

>  <JCHEM_POLAR_SURFACE_AREA>  (1) 
113.69

>  <JCHEM_REFRACTIVITY>  (1) 
134.7964

>  <JCHEM_ROTATABLE_BOND_COUNT>  (1) 
11

>  <JCHEM_RULE_OF_FIVE>  (1) 
1

>  <JCHEM_TRADITIONAL_IUPAC>  (1) 
nicardipine

>  <JCHEM_VEBER_RULE>  (1) 
0

>  <MOLECULAR_WEIGHT>  (1) 
479.525

>  <PRODUCTS>  (1) 
Cardene 20mg Capsules; Cardene 30mg Capsules; Cardene Cap 30mg; Cardene I.V.; Cardene IV; Cardene SR; NICARdipine Hydrochloride; Nicardipine Hydrochloride

>  <SALTS>  (1) 
Nicardipine Hydrochloride

>  <SECONDARY_ACCESSION_NUMBERS>  (1) 
APRD00088

>  <SMILES>  (1) 
COC(=O)C1=C(C)NC(C)=C(C1C1=CC(=CC=C1)[N+]([O-])=O)C(=O)OCCN(C)CC1=CC=CC=C1

>  <SYNONYMS>  (1) 
Nicardipino; Nicardipinum

$$$$
