
     RDKit          2D

123128  0  0  1  0  0  0  0  0999 V2000
   15.4059  -12.0930    0.0000 C   0  0  0  0  0  0  0  0  0  0  0  0
   15.4016  -12.9194    0.0000 C   0  0  0  0  0  0  0  0  0  0  0  0
   16.1124  -13.3342    0.0000 C   0  0  0  0  0  0  0  0  0  0  0  0
   16.8314  -12.9268    0.0000 N   0  0  0  0  0  0  0  0  0  0  0  0
   16.8357  -12.1004    0.0000 C   0  0  0  0  0  0  0  0  0  0  0  0
   16.1209  -11.6814    0.0000 C   0  0  0  0  0  0  0  0  0  0  0  0
   13.2682  -10.0248    0.0000 C   0  0  0  0  0  0  0  0  0  0  0  0
   13.2646  -10.8513    0.0000 C   0  0  0  0  0  0  0  0  0  0  0  0
   12.5536  -11.2665    0.0000 C   0  0  0  0  0  0  0  0  0  0  0  0
   12.5544  -12.0946    0.0000 C   0  0  0  0  0  0  0  0  0  0  0  0
   11.8339  -10.8606    0.0000 C   0  0  0  0  0  0  0  0  0  0  0  0
   11.1256   -9.6211    0.0000 C   0  0  0  0  0  0  0  0  0  0  0  0
   11.8360  -10.0403    0.0000 C   0  0  0  0  0  0  0  0  0  0  0  0
   12.5488   -9.6329    0.0000 C   0  0  0  0  0  0  0  0  0  0  0  0
   11.1324   -8.7985    0.0000 C   0  0  0  0  0  0  0  0  0  0  0  0
   11.8496   -8.3953    0.0000 C   0  0  0  0  0  0  0  0  0  0  0  0
   12.5703   -7.1689    0.0000 C   0  0  0  0  0  0  0  0  0  0  0  0
   11.8580   -7.5699    0.0000 C   0  0  0  0  0  0  0  0  0  0  0  0
   13.2785   -7.5845    0.0000 C   0  0  0  0  0  0  0  0  0  0  0  0
   13.2692   -8.4061    0.0000 O   0  0  0  0  0  0  0  0  0  0  0  0
   13.9923   -7.1861    0.0000 C   0  0  0  0  0  0  0  0  0  0  0  0
   14.6967   -7.6006    0.0000 C   0  0  0  0  0  0  0  0  0  0  0  0
   16.0992   -8.4325    0.0000 C   0  0  0  0  0  0  0  0  0  0  0  0
   16.1052   -7.6184    0.0000 C   0  0  0  0  0  0  0  0  0  0  0  0
   15.4082   -7.2048    0.0000 C   0  0  0  0  0  0  0  0  0  0  0  0
   15.3877   -8.8326    0.0000 C   0  0  0  0  0  0  0  0  0  0  0  0
   13.9679   -9.6167    0.0000 C   0  0  0  0  0  0  0  0  0  0  0  0
   14.6630  -10.0363    0.0000 C   0  0  0  0  0  0  0  0  0  0  0  0
   15.3729   -9.6422    0.0000 N   0  0  0  0  0  0  0  0  0  0  0  0
   13.1416  -12.6764    0.0000 O   0  0  0  0  0  0  0  0  0  0  0  0
   10.4061  -10.0335    0.0000 C   0  0  0  0  0  0  0  0  0  0  0  0
   10.4040  -10.8568    0.0000 C   0  0  0  0  0  0  0  0  0  0  0  0
    9.6890  -11.2643    0.0000 C   0  0  0  0  0  0  0  0  0  0  0  0
    9.6832  -12.0853    0.0000 O   0  0  0  0  0  0  0  0  0  0  0  0
   11.1078  -12.0953    0.0000 C   0  0  0  0  0  0  0  0  0  0  0  0
   11.1136  -11.2742    0.0000 O   0  0  0  0  0  0  0  0  0  0  0  0
   11.1027  -12.9194    0.0000 C   0  0  0  0  0  0  0  0  0  0  0  0
   16.8067   -8.8567    0.0000 C   0  0  0  0  0  0  0  0  0  0  0  0
    9.6905   -9.6157    0.0000 O   0  0  0  0  0  0  0  0  0  0  0  0
    8.9762  -10.0285    0.0000 C   0  0  0  0  0  0  0  0  0  0  0  0
   10.4046   -9.2070    0.0000 C   0  0  0  0  0  0  0  0  0  0  0  0
   12.5787   -6.3425    0.0000 C   0  0  0  0  0  0  0  0  0  0  0  0
   14.0016   -6.3598    0.0000 C   0  0  0  0  0  0  0  0  0  0  0  0
   10.4187   -8.3816    0.0000 O   0  0  0  0  0  0  0  0  0  0  0  0
   11.1461   -7.1457    0.0000 O   0  0  0  0  0  0  0  0  0  0  0  0
    9.6982   -7.9652    0.0000 C   0  0  0  0  0  0  0  0  0  0  0  0
    8.9816   -8.3815    0.0000 C   0  0  0  0  0  0  0  0  0  0  0  0
    9.6973   -7.1389    0.0000 O   0  0  0  0  0  0  0  0  0  0  0  0
   13.9742   -8.7902    0.0000 O   0  0  0  0  0  0  0  0  0  0  0  0
   12.5413   -8.8045    0.0000 O   0  0  0  0  0  0  0  0  0  0  0  0
   11.1284   -7.9781    0.0000 C   0  0  0  0  0  0  0  0  0  0  0  0
   14.6771   -8.4064    0.0000 O   0  0  0  0  0  0  0  0  0  0  0  0
   14.6987  -10.8530    0.0000 C   0  0  0  0  0  0  0  0  0  0  0  0
   13.9807  -11.2640    0.0000 C   0  0  0  0  0  0  0  0  0  0  0  0
   13.9766  -12.0892    0.0000 N   0  0  0  0  0  0  0  0  0  0  0  0
   15.4126  -11.2711    0.0000 N   0  0  0  0  0  0  0  0  0  0  0  0
   17.5465  -13.3416    0.0000 C   0  0  0  0  0  0  0  0  0  0  0  0
   18.2657  -12.9342    0.0000 C   0  0  0  0  0  0  0  0  0  0  0  0
   18.9806  -13.3490    0.0000 C   0  0  0  0  0  0  0  0  0  0  0  0
   18.2700  -12.1078    0.0000 C   0  0  0  0  0  0  0  0  0  0  0  0
   11.8306   -9.1899    0.0000 C   0  0  0  0  0  0  0  0  0  0  0  0
    0.0000    0.0000    0.0000 H   0  0  0  0  0  0  0  0  0  0  0  0
    0.0000    0.0000    0.0000 H   0  0  0  0  0  0  0  0  0  0  0  0
    0.0000    0.0000    0.0000 H   0  0  0  0  0  0  0  0  0  0  0  0
    0.0000    0.0000    0.0000 H   0  0  0  0  0  0  0  0  0  0  0  0
    0.0000    0.0000    0.0000 H   0  0  0  0  0  0  0  0  0  0  0  0
    0.0000    0.0000    0.0000 H   0  0  0  0  0  0  0  0  0  0  0  0
    0.0000    0.0000    0.0000 H   0  0  0  0  0  0  0  0  0  0  0  0
    0.0000    0.0000    0.0000 H   0  0  0  0  0  0  0  0  0  0  0  0
    0.0000    0.0000    0.0000 H   0  0  0  0  0  0  0  0  0  0  0  0
    0.0000    0.0000    0.0000 H   0  0  0  0  0  0  0  0  0  0  0  0
    0.0000    0.0000    0.0000 H   0  0  0  0  0  0  0  0  0  0  0  0
    0.0000    0.0000    0.0000 H   0  0  0  0  0  0  0  0  0  0  0  0
    0.0000    0.0000    0.0000 H   0  0  0  0  0  0  0  0  0  0  0  0
    0.0000    0.0000    0.0000 H   0  0  0  0  0  0  0  0  0  0  0  0
    0.0000    0.0000    0.0000 H   0  0  0  0  0  0  0  0  0  0  0  0
    0.0000    0.0000    0.0000 H   0  0  0  0  0  0  0  0  0  0  0  0
    0.0000    0.0000    0.0000 H   0  0  0  0  0  0  0  0  0  0  0  0
    0.0000    0.0000    0.0000 H   0  0  0  0  0  0  0  0  0  0  0  0
    0.0000    0.0000    0.0000 H   0  0  0  0  0  0  0  0  0  0  0  0
    0.0000    0.0000    0.0000 H   0  0  0  0  0  0  0  0  0  0  0  0
    0.0000    0.0000    0.0000 H   0  0  0  0  0  0  0  0  0  0  0  0
    0.0000    0.0000    0.0000 H   0  0  0  0  0  0  0  0  0  0  0  0
    0.0000    0.0000    0.0000 H   0  0  0  0  0  0  0  0  0  0  0  0
    0.0000    0.0000    0.0000 H   0  0  0  0  0  0  0  0  0  0  0  0
    0.0000    0.0000    0.0000 H   0  0  0  0  0  0  0  0  0  0  0  0
    0.0000    0.0000    0.0000 H   0  0  0  0  0  0  0  0  0  0  0  0
    0.0000    0.0000    0.0000 H   0  0  0  0  0  0  0  0  0  0  0  0
    0.0000    0.0000    0.0000 H   0  0  0  0  0  0  0  0  0  0  0  0
    0.0000    0.0000    0.0000 H   0  0  0  0  0  0  0  0  0  0  0  0
    0.0000    0.0000    0.0000 H   0  0  0  0  0  0  0  0  0  0  0  0
    0.0000    0.0000    0.0000 H   0  0  0  0  0  0  0  0  0  0  0  0
    0.0000    0.0000    0.0000 H   0  0  0  0  0  0  0  0  0  0  0  0
    0.0000    0.0000    0.0000 H   0  0  0  0  0  0  0  0  0  0  0  0
    0.0000    0.0000    0.0000 H   0  0  0  0  0  0  0  0  0  0  0  0
    0.0000    0.0000    0.0000 H   0  0  0  0  0  0  0  0  0  0  0  0
    0.0000    0.0000    0.0000 H   0  0  0  0  0  0  0  0  0  0  0  0
    0.0000    0.0000    0.0000 H   0  0  0  0  0  0  0  0  0  0  0  0
    0.0000    0.0000    0.0000 H   0  0  0  0  0  0  0  0  0  0  0  0
    0.0000    0.0000    0.0000 H   0  0  0  0  0  0  0  0  0  0  0  0
    0.0000    0.0000    0.0000 H   0  0  0  0  0  0  0  0  0  0  0  0
    0.0000    0.0000    0.0000 H   0  0  0  0  0  0  0  0  0  0  0  0
    0.0000    0.0000    0.0000 H   0  0  0  0  0  0  0  0  0  0  0  0
    0.0000    0.0000    0.0000 H   0  0  0  0  0  0  0  0  0  0  0  0
    0.0000    0.0000    0.0000 H   0  0  0  0  0  0  0  0  0  0  0  0
    0.0000    0.0000    0.0000 H   0  0  0  0  0  0  0  0  0  0  0  0
    0.0000    0.0000    0.0000 H   0  0  0  0  0  0  0  0  0  0  0  0
    0.0000    0.0000    0.0000 H   0  0  0  0  0  0  0  0  0  0  0  0
    0.0000    0.0000    0.0000 H   0  0  0  0  0  0  0  0  0  0  0  0
    0.0000    0.0000    0.0000 H   0  0  0  0  0  0  0  0  0  0  0  0
    0.0000    0.0000    0.0000 H   0  0  0  0  0  0  0  0  0  0  0  0
    0.0000    0.0000    0.0000 H   0  0  0  0  0  0  0  0  0  0  0  0
    0.0000    0.0000    0.0000 H   0  0  0  0  0  0  0  0  0  0  0  0
    0.0000    0.0000    0.0000 H   0  0  0  0  0  0  0  0  0  0  0  0
    0.0000    0.0000    0.0000 H   0  0  0  0  0  0  0  0  0  0  0  0
    0.0000    0.0000    0.0000 H   0  0  0  0  0  0  0  0  0  0  0  0
    0.0000    0.0000    0.0000 H   0  0  0  0  0  0  0  0  0  0  0  0
    0.0000    0.0000    0.0000 H   0  0  0  0  0  0  0  0  0  0  0  0
    0.0000    0.0000    0.0000 H   0  0  0  0  0  0  0  0  0  0  0  0
    0.0000    0.0000    0.0000 H   0  0  0  0  0  0  0  0  0  0  0  0
    0.0000    0.0000    0.0000 H   0  0  0  0  0  0  0  0  0  0  0  0
    0.0000    0.0000    0.0000 H   0  0  0  0  0  0  0  0  0  0  0  0
    0.0000    0.0000    0.0000 H   0  0  0  0  0  0  0  0  0  0  0  0
 28 29  1  0
 29 26  1  0
  5  6  1  0
 10 30  2  0
  6  1  1  0
 32 31  1  0
  9  8  1  0
  7 14  1  0
 13 14  2  0
 16 15  1  0
 15 12  1  0
 32 33  2  0
 33 34  1  0
 35 36  1  0
 34 35  1  0
 35 10  1  0
 35 37  1  6
  1  2  1  0
 23 38  1  0
  7  8  2  0
 31 39  1  6
 19 17  1  0
 39 40  1  0
 17 18  1  0
 12 41  1  1
 18 45  1  6
 18 16  1  0
 17 42  1  6
  8 54  1  0
 21 43  1  1
 53 28  2  0
 15 44  1  1
 27  7  1  0
 19 20  1  6
 44 46  1  0
 22 21  1  0
 46 47  1  0
 21 19  1  0
 46 48  2  0
  2  3  1  0
 27 49  2  0
  3  4  1  0
 14 50  1  0
  9 11  2  0
 16 51  1  6
 10  9  1  0
 26 52  2  0
 26 23  1  0
 23 24  2  0
 24 25  1  0
 25 22  2  0
 53 54  1  0
 54 55  2  0
  1 56  1  0
 56 53  1  0
 55  1  1  0
  4  5  1  0
  4 57  1  0
 36 11  1  0
 57 58  1  0
 11 13  1  0
 58 59  1  0
 12 31  1  0
 58 60  1  0
 27 28  1  0
 13 61  1  0
  2 62  1  0
  2 63  1  0
  3 64  1  0
  3 65  1  0
  5 66  1  0
  5 67  1  0
  6 68  1  0
  6 69  1  0
 12 70  1  0
 15 71  1  0
 16 72  1  0
 17 73  1  0
 18 74  1  0
 19 75  1  0
 20 76  1  0
 21 77  1  0
 22 78  1  0
 24 79  1  0
 25 80  1  0
 29 81  1  0
 31 82  1  0
 32 83  1  0
 33 84  1  0
 37 85  1  0
 37 86  1  0
 37 87  1  0
 38 88  1  0
 38 89  1  0
 38 90  1  0
 40 91  1  0
 40 92  1  0
 40 93  1  0
 41 94  1  0
 41 95  1  0
 41 96  1  0
 42 97  1  0
 42 98  1  0
 42 99  1  0
 43100  1  0
 43101  1  0
 43102  1  0
 45103  1  0
 47104  1  0
 47105  1  0
 47106  1  0
 50107  1  0
 51108  1  0
 51109  1  0
 51110  1  0
 56111  1  0
 57112  1  0
 57113  1  0
 58114  1  0
 59115  1  0
 59116  1  0
 59117  1  0
 60118  1  0
 60119  1  0
 60120  1  0
 61121  1  0
 61122  1  0
 61123  1  0
M  END
>  <ALOGPS_LOGP>  (1) 
4.25

>  <ALOGPS_LOGS>  (1) 
-4.70

>  <ALOGPS_SOLUBILITY>  (1) 
1.70e-02 g/l

>  <DATABASE_ID>  (1) 
DB00615

>  <DATABASE_NAME>  (1) 
drugbank

>  <DRUGBANK_ID>  (1) 
DB00615

>  <DRUG_GROUPS>  (1) 
approved

>  <EXACT_MASS>  (1) 
846.441508846

>  <FORMULA>  (1) 
C46H62N4O11

>  <GENERIC_NAME>  (1) 
Rifabutin

>  <INCHI_IDENTIFIER>  (1) 
InChI=1S/C46H62N4O11/c1-22(2)21-50-18-16-46(17-19-50)48-34-31-32-39(54)28(8)42-33(31)43(56)45(10,61-42)59-20-15-30(58-11)25(5)41(60-29(9)51)27(7)38(53)26(6)37(52)23(3)13-12-14-24(4)44(57)47-36(40(32)55)35(34)49-46/h12-15,20,22-23,25-27,30,37-38,41,49,52-54H,16-19,21H2,1-11H3,(H,47,57)/b13-12+,20-15+,24-14-/t23-,25+,26+,27+,30-,37-,38+,41+,45-/m0/s1

>  <INCHI_KEY>  (1) 
ATEBXHFBFRCZMA-VXTBVIBXSA-N

>  <INTERNATIONAL_BRANDS>  (1) 
Ansatipin; Ansatipine; Ributin

>  <JCHEM_ACCEPTOR_COUNT>  (1) 
13

>  <JCHEM_AVERAGE_POLARIZABILITY>  (1) 
90.71805678336865

>  <JCHEM_BIOAVAILABILITY>  (1) 
0

>  <JCHEM_DONOR_COUNT>  (1) 
5

>  <JCHEM_FORMAL_CHARGE>  (1) 
0

>  <JCHEM_GHOSE_FILTER>  (1) 
0

>  <JCHEM_IUPAC>  (1) 
(7S,9E,11S,12R,13S,14R,15R,16R,17S,18S,19E,21Z)-2,15,17-trihydroxy-11-methoxy-3,7,12,14,16,18,22-heptamethyl-1'-(2-methylpropyl)-6,23,32-trioxo-8,33-dioxa-24,27,29-triazaspiro[pentacyclo[23.6.1.1⁴,⁷.0⁵,³¹.0²⁶,³⁰]tritriacontane-28,4'-piperidin]-1(31),2,4,9,19,21,25,29-octaen-13-yl acetate

>  <JCHEM_LOGP>  (1) 
4.186444050521126

>  <JCHEM_MDDR_LIKE_RULE>  (1) 
0

>  <JCHEM_NUMBER_OF_RINGS>  (1) 
6

>  <JCHEM_PHYSIOLOGICAL_CHARGE>  (1) 
1

>  <JCHEM_PKA>  (1) 
12.632801753947572

>  <JCHEM_PKA_STRONGEST_ACIDIC>  (1) 
7.928938678886108

>  <JCHEM_PKA_STRONGEST_BASIC>  (1) 
8.6227059334027

>  <JCHEM_POLAR_SURFACE_AREA>  (1) 
205.54999999999998

>  <JCHEM_REFRACTIVITY>  (1) 
232.6445000000001

>  <JCHEM_ROTATABLE_BOND_COUNT>  (1) 
5

>  <JCHEM_RULE_OF_FIVE>  (1) 
0

>  <JCHEM_TRADITIONAL_IUPAC>  (1) 
rifabutin

>  <JCHEM_VEBER_RULE>  (1) 
0

>  <MOLECULAR_WEIGHT>  (1) 
847.0047

>  <PRODUCTS>  (1) 
Mycobutin; Rifabutin

>  <SECONDARY_ACCESSION_NUMBERS>  (1) 
APRD00094

>  <SMILES>  (1) 
CO[C@H]1\C=C\O[C@@]2(C)OC3=C(C2=O)C2=C(C(O)=C3C)C(=O)C(NC(=O)\C(C)=C/C=C/[C@H](C)[C@H](O)[C@@H](C)[C@@H](O)[C@@H](C)[C@H](OC(C)=O)[C@@H]1C)=C1NC3(CCN(CC3)CC(C)C)N=C21

>  <SYNONYMS>  (1) 
Ansamicin; Ansamycin; Rifabutin; Rifabutina; Rifabutine; Rifabutinum

$$$$
