3290
     RDKit          2D

 46 48  0  0  1  0  0  0  0  0999 V2000
    3.6958   -2.3625    0.0000 S   0  0  0  0  0  0  0  0  0  0  0  0
    4.3818    1.2018    0.0000 N   0  0  0  0  0  0  0  0  0  0  0  0
    3.6958   -0.7783    0.0000 N   0  0  0  0  0  0  0  0  0  0  0  0
    4.3818    0.4098    0.0000 C   0  0  0  0  0  0  0  0  0  0  0  0
    3.6958    0.0137    0.0000 C   0  0  0  0  0  0  0  0  0  0  0  0
    5.0677    0.0137    0.0000 C   0  0  0  0  0  0  0  0  0  0  0  0
    5.0677    1.5979    0.0000 C   0  0  0  0  0  0  0  0  0  0  0  0
    3.6958    1.5979    0.0000 C   0  0  0  0  0  0  0  0  0  0  0  0
    4.3818   -1.1744    0.0000 C   0  0  0  0  0  0  0  0  0  0  0  0
    3.0099   -1.1744    0.0000 C   0  0  0  0  0  0  0  0  0  0  0  0
    4.3818   -1.9664    0.0000 C   0  0  0  0  0  0  0  0  0  0  0  0
    3.0099   -1.9664    0.0000 C   0  0  0  0  0  0  0  0  0  0  0  0
    5.0677    2.3899    0.0000 C   0  0  0  0  0  0  0  0  0  0  0  0
    3.6958    2.3899    0.0000 C   0  0  0  0  0  0  0  0  0  0  0  0
    2.3018   -0.7509    0.0000 C   0  0  0  0  0  0  0  0  0  0  0  0
    5.0899   -0.7509    0.0000 C   0  0  0  0  0  0  0  0  0  0  0  0
    5.0899   -2.3899    0.0000 C   0  0  0  0  0  0  0  0  0  0  0  0
    2.3018   -2.3899    0.0000 C   0  0  0  0  0  0  0  0  0  0  0  0
    1.5841   -1.1580    0.0000 C   0  0  0  0  0  0  0  0  0  0  0  0
    5.8075   -1.1580    0.0000 C   0  0  0  0  0  0  0  0  0  0  0  0
    1.5841   -1.9830    0.0000 C   0  0  0  0  0  0  0  0  0  0  0  0
    5.8075   -1.9830    0.0000 C   0  0  0  0  0  0  0  0  0  0  0  0
    0.0000    0.0000    0.0000 H   0  0  0  0  0  0  0  0  0  0  0  0
    0.0000    0.0000    0.0000 H   0  0  0  0  0  0  0  0  0  0  0  0
    0.0000    0.0000    0.0000 H   0  0  0  0  0  0  0  0  0  0  0  0
    0.0000    0.0000    0.0000 H   0  0  0  0  0  0  0  0  0  0  0  0
    0.0000    0.0000    0.0000 H   0  0  0  0  0  0  0  0  0  0  0  0
    0.0000    0.0000    0.0000 H   0  0  0  0  0  0  0  0  0  0  0  0
    0.0000    0.0000    0.0000 H   0  0  0  0  0  0  0  0  0  0  0  0
    0.0000    0.0000    0.0000 H   0  0  0  0  0  0  0  0  0  0  0  0
    0.0000    0.0000    0.0000 H   0  0  0  0  0  0  0  0  0  0  0  0
    0.0000    0.0000    0.0000 H   0  0  0  0  0  0  0  0  0  0  0  0
    0.0000    0.0000    0.0000 H   0  0  0  0  0  0  0  0  0  0  0  0
    0.0000    0.0000    0.0000 H   0  0  0  0  0  0  0  0  0  0  0  0
    0.0000    0.0000    0.0000 H   0  0  0  0  0  0  0  0  0  0  0  0
    0.0000    0.0000    0.0000 H   0  0  0  0  0  0  0  0  0  0  0  0
    0.0000    0.0000    0.0000 H   0  0  0  0  0  0  0  0  0  0  0  0
    0.0000    0.0000    0.0000 H   0  0  0  0  0  0  0  0  0  0  0  0
    0.0000    0.0000    0.0000 H   0  0  0  0  0  0  0  0  0  0  0  0
    0.0000    0.0000    0.0000 H   0  0  0  0  0  0  0  0  0  0  0  0
    0.0000    0.0000    0.0000 H   0  0  0  0  0  0  0  0  0  0  0  0
    0.0000    0.0000    0.0000 H   0  0  0  0  0  0  0  0  0  0  0  0
    0.0000    0.0000    0.0000 H   0  0  0  0  0  0  0  0  0  0  0  0
    0.0000    0.0000    0.0000 H   0  0  0  0  0  0  0  0  0  0  0  0
    0.0000    0.0000    0.0000 H   0  0  0  0  0  0  0  0  0  0  0  0
    0.0000    0.0000    0.0000 H   0  0  0  0  0  0  0  0  0  0  0  0
  1 11  1  0
  1 12  1  0
  2  4  1  0
  2  7  1  0
  2  8  1  0
  3  5  1  0
  3  9  1  0
  3 10  1  0
  4  5  1  0
  4  6  1  0
  7 13  1  0
  8 14  1  0
  9 11  2  0
  9 16  1  0
 10 12  2  0
 10 15  1  0
 11 17  1  0
 12 18  1  0
 15 19  2  0
 16 20  2  0
 17 22  2  0
 18 21  2  0
 19 21  1  0
 20 22  1  0
  4 23  1  0
  5 24  1  0
  5 25  1  0
  6 26  1  0
  6 27  1  0
  6 28  1  0
  7 29  1  0
  7 30  1  0
  8 31  1  0
  8 32  1  0
 13 33  1  0
 13 34  1  0
 13 35  1  0
 14 36  1  0
 14 37  1  0
 14 38  1  0
 15 39  1  0
 16 40  1  0
 17 41  1  0
 18 42  1  0
 19 43  1  0
 20 44  1  0
 21 45  1  0
 22 46  1  0
M  END
>  <ALOGPS_LOGP>  (1) 
5.75

>  <ALOGPS_LOGS>  (1) 
-4.78

>  <ALOGPS_SOLUBILITY>  (1) 
5.24e-03 g/l

>  <DATABASE_ID>  (1) 
DB00392

>  <DATABASE_NAME>  (1) 
drugbank

>  <DRUGBANK_ID>  (1) 
DB00392

>  <DRUG_GROUPS>  (1) 
approved

>  <EXACT_MASS>  (1) 
312.166019468

>  <FORMULA>  (1) 
C19H24N2S

>  <GENERIC_NAME>  (1) 
Ethopropazine

>  <INCHI_IDENTIFIER>  (1) 
InChI=1S/C19H24N2S/c1-4-20(5-2)15(3)14-21-16-10-6-8-12-18(16)22-19-13-9-7-11-17(19)21/h6-13,15H,4-5,14H2,1-3H3

>  <INCHI_KEY>  (1) 
CDOZDBSBBXSXLB-UHFFFAOYSA-N

>  <INTERNATIONAL_BRANDS>  (1) 
Dibutil; Parkin; Parsidan; Parsidol

>  <JCHEM_ACCEPTOR_COUNT>  (1) 
2

>  <JCHEM_AVERAGE_POLARIZABILITY>  (1) 
36.340232624884834

>  <JCHEM_BIOAVAILABILITY>  (1) 
1

>  <JCHEM_DONOR_COUNT>  (1) 
0

>  <JCHEM_FORMAL_CHARGE>  (1) 
0

>  <JCHEM_GHOSE_FILTER>  (1) 
1

>  <JCHEM_IUPAC>  (1) 
diethyl[1-(10H-phenothiazin-10-yl)propan-2-yl]amine

>  <JCHEM_LOGP>  (1) 
5.001186761000001

>  <JCHEM_MDDR_LIKE_RULE>  (1) 
0

>  <JCHEM_NUMBER_OF_RINGS>  (1) 
3

>  <JCHEM_PHYSIOLOGICAL_CHARGE>  (1) 
1

>  <JCHEM_PKA_STRONGEST_BASIC>  (1) 
9.600902231194752

>  <JCHEM_POLAR_SURFACE_AREA>  (1) 
6.48

>  <JCHEM_REFRACTIVITY>  (1) 
98.00210000000004

>  <JCHEM_ROTATABLE_BOND_COUNT>  (1) 
5

>  <JCHEM_RULE_OF_FIVE>  (1) 
0

>  <JCHEM_TRADITIONAL_IUPAC>  (1) 
ethopropazine

>  <JCHEM_VEBER_RULE>  (1) 
1

>  <MOLECULAR_WEIGHT>  (1) 
312.472

>  <PRODUCTS>  (1) 
Parsitan 50mg

>  <SALTS>  (1) 
Ethopropazine hydrochloride

>  <SECONDARY_ACCESSION_NUMBERS>  (1) 
APRD00729

>  <SMILES>  (1) 
CCN(CC)C(C)CN1C2=CC=CC=C2SC2=CC=CC=C12

>  <SYNONYMS>  (1) 
Profenamina; Profenamine; Profenaminum

$$$$
