
     RDKit          2D

 55 56  0  0  1  0  0  0  0  0999 V2000
    9.1805   -4.8012    0.0000 N   0  0  0  0  0  0  0  0  0  0  0  0
    8.4673   -5.2160    0.0000 C   0  0  0  0  0  0  0  0  0  0  0  0
    9.9336   -5.1331    0.0000 C   0  0  0  0  0  0  0  0  0  0  0  0
    7.0381   -5.2203    0.0000 N   0  0  0  0  0  0  0  0  0  0  0  0
    7.7512   -4.8054    0.0000 C   0  0  0  0  0  0  0  0  0  0  0  0
   10.1057   -5.9430    0.0000 C   0  0  0  0  0  0  0  0  0  0  0  0
    6.3219   -3.9891    0.0000 C   0  0  0  0  0  0  0  0  0  0  0  0
    6.3297   -4.8116    0.0000 C   0  0  0  0  0  0  0  0  0  0  0  0
    8.4675   -6.0368    0.0000 O   0  0  0  0  0  0  0  0  0  0  0  0
    9.4971   -6.4941    0.0000 O   0  0  0  0  0  0  0  0  0  0  0  0
    7.0252   -3.5620    0.0000 O   0  0  0  0  0  0  0  0  0  0  0  0
    5.6166   -5.2265    0.0000 C   0  0  0  0  0  0  0  0  0  0  0  0
    9.2616   -3.9778    0.0000 C   0  0  0  0  0  0  0  0  0  0  0  0
   10.8928   -6.1914    0.0000 O   0  0  0  0  0  0  0  0  0  0  0  0
    5.6010   -3.5880    0.0000 O   0  0  0  0  0  0  0  0  0  0  0  0
    4.9035   -4.8207    0.0000 C   0  0  0  0  0  0  0  0  0  0  0  0
   10.4815   -4.5217    0.0000 C   0  0  0  0  0  0  0  0  0  0  0  0
    4.1903   -5.2355    0.0000 C   0  0  0  0  0  0  0  0  0  0  0  0
   10.0667   -3.8085    0.0000 C   0  0  0  0  0  0  0  0  0  0  0  0
    7.7512   -3.9848    0.0000 C   0  0  0  0  0  0  0  0  0  0  0  0
    5.5882   -2.7624    0.0000 C   0  0  0  0  0  0  0  0  0  0  0  0
    3.4742   -4.8250    0.0000 C   0  0  0  0  0  0  0  0  0  0  0  0
    4.1903   -6.0561    0.0000 C   0  0  0  0  0  0  0  0  0  0  0  0
    2.7611   -5.2399    0.0000 C   0  0  0  0  0  0  0  0  0  0  0  0
    3.4772   -6.4710    0.0000 C   0  0  0  0  0  0  0  0  0  0  0  0
    2.7639   -6.0653    0.0000 C   0  0  0  0  0  0  0  0  0  0  0  0
    4.8674   -2.3612    0.0000 C   0  0  0  0  0  0  0  0  0  0  0  0
    0.0000    0.0000    0.0000 H   0  0  0  0  0  0  0  0  0  0  0  0
    0.0000    0.0000    0.0000 H   0  0  0  0  0  0  0  0  0  0  0  0
    0.0000    0.0000    0.0000 H   0  0  0  0  0  0  0  0  0  0  0  0
    0.0000    0.0000    0.0000 H   0  0  0  0  0  0  0  0  0  0  0  0
    0.0000    0.0000    0.0000 H   0  0  0  0  0  0  0  0  0  0  0  0
    0.0000    0.0000    0.0000 H   0  0  0  0  0  0  0  0  0  0  0  0
    0.0000    0.0000    0.0000 H   0  0  0  0  0  0  0  0  0  0  0  0
    0.0000    0.0000    0.0000 H   0  0  0  0  0  0  0  0  0  0  0  0
    0.0000    0.0000    0.0000 H   0  0  0  0  0  0  0  0  0  0  0  0
    0.0000    0.0000    0.0000 H   0  0  0  0  0  0  0  0  0  0  0  0
    0.0000    0.0000    0.0000 H   0  0  0  0  0  0  0  0  0  0  0  0
    0.0000    0.0000    0.0000 H   0  0  0  0  0  0  0  0  0  0  0  0
    0.0000    0.0000    0.0000 H   0  0  0  0  0  0  0  0  0  0  0  0
    0.0000    0.0000    0.0000 H   0  0  0  0  0  0  0  0  0  0  0  0
    0.0000    0.0000    0.0000 H   0  0  0  0  0  0  0  0  0  0  0  0
    0.0000    0.0000    0.0000 H   0  0  0  0  0  0  0  0  0  0  0  0
    0.0000    0.0000    0.0000 H   0  0  0  0  0  0  0  0  0  0  0  0
    0.0000    0.0000    0.0000 H   0  0  0  0  0  0  0  0  0  0  0  0
    0.0000    0.0000    0.0000 H   0  0  0  0  0  0  0  0  0  0  0  0
    0.0000    0.0000    0.0000 H   0  0  0  0  0  0  0  0  0  0  0  0
    0.0000    0.0000    0.0000 H   0  0  0  0  0  0  0  0  0  0  0  0
    0.0000    0.0000    0.0000 H   0  0  0  0  0  0  0  0  0  0  0  0
    0.0000    0.0000    0.0000 H   0  0  0  0  0  0  0  0  0  0  0  0
    0.0000    0.0000    0.0000 H   0  0  0  0  0  0  0  0  0  0  0  0
    0.0000    0.0000    0.0000 H   0  0  0  0  0  0  0  0  0  0  0  0
    0.0000    0.0000    0.0000 H   0  0  0  0  0  0  0  0  0  0  0  0
    0.0000    0.0000    0.0000 H   0  0  0  0  0  0  0  0  0  0  0  0
    0.0000    0.0000    0.0000 H   0  0  0  0  0  0  0  0  0  0  0  0
  2  1  1  0
  3  1  1  0
 13  1  1  0
  5  2  1  6
  9  2  2  0
  3  6  1  6
 17  3  1  0
  5  4  1  0
  8  4  1  6
  5 20  1  0
 10  6  2  0
 14  6  1  0
  8  7  1  0
 11  7  2  0
 15  7  1  0
 12  8  1  0
 16 12  1  0
 19 13  1  0
 21 15  1  0
 18 16  1  0
 19 17  1  0
 22 18  2  0
 23 18  1  0
 24 22  1  0
 25 23  2  0
 26 24  2  0
 26 25  1  0
 21 27  1  0
  3 28  1  0
  4 29  1  0
  5 30  1  0
  8 31  1  0
 12 32  1  0
 12 33  1  0
 13 34  1  0
 13 35  1  0
 14 36  1  0
 16 37  1  0
 16 38  1  0
 17 39  1  0
 17 40  1  0
 19 41  1  0
 19 42  1  0
 20 43  1  0
 20 44  1  0
 20 45  1  0
 21 46  1  0
 21 47  1  0
 22 48  1  0
 23 49  1  0
 24 50  1  0
 25 51  1  0
 26 52  1  0
 27 53  1  0
 27 54  1  0
 27 55  1  0
M  END
>  <ALOGPS_LOGP>  (1) 
0.19

>  <ALOGPS_LOGS>  (1) 
-3.25

>  <ALOGPS_SOLUBILITY>  (1) 
2.13e-01 g/l

>  <DATABASE_ID>  (1) 
DB00584

>  <DATABASE_NAME>  (1) 
drugbank

>  <DRUGBANK_ID>  (1) 
DB00584

>  <DRUG_GROUPS>  (1) 
approved; vet_approved

>  <EXACT_MASS>  (1) 
376.199822016

>  <FORMULA>  (1) 
C20H28N2O5

>  <GENERIC_NAME>  (1) 
Enalapril

>  <INCHI_IDENTIFIER>  (1) 
InChI=1S/C20H28N2O5/c1-3-27-20(26)16(12-11-15-8-5-4-6-9-15)21-14(2)18(23)22-13-7-10-17(22)19(24)25/h4-6,8-9,14,16-17,21H,3,7,10-13H2,1-2H3,(H,24,25)/t14-,16-,17-/m0/s1

>  <INCHI_KEY>  (1) 
GBXSMTUPTTWBMN-XIRDDKMYSA-N

>  <INTERNATIONAL_BRANDS>  (1) 
Acetec; Acetensil; Alapren; Amotac; Amprace; Dilvas; Diotensil; Drepatil; Enace; EnaHexal; Enal; Enalapoten; Enpril; Feliberal; Gadopril; Glioten; Kinfil; Vasotec IV

>  <JCHEM_ACCEPTOR_COUNT>  (1) 
5

>  <JCHEM_AVERAGE_POLARIZABILITY>  (1) 
40.40726424198972

>  <JCHEM_BIOAVAILABILITY>  (1) 
1

>  <JCHEM_DONOR_COUNT>  (1) 
2

>  <JCHEM_FORMAL_CHARGE>  (1) 
0

>  <JCHEM_GHOSE_FILTER>  (1) 
1

>  <JCHEM_IUPAC>  (1) 
(2S)-1-[(2S)-2-{[(2S)-1-ethoxy-1-oxo-4-phenylbutan-2-yl]amino}propanoyl]pyrrolidine-2-carboxylic acid

>  <JCHEM_LOGP>  (1) 
0.5877766028820196

>  <JCHEM_MDDR_LIKE_RULE>  (1) 
0

>  <JCHEM_NUMBER_OF_RINGS>  (1) 
2

>  <JCHEM_PHYSIOLOGICAL_CHARGE>  (1) 
-1

>  <JCHEM_PKA_STRONGEST_ACIDIC>  (1) 
3.671330392672694

>  <JCHEM_PKA_STRONGEST_BASIC>  (1) 
5.201340771859483

>  <JCHEM_POLAR_SURFACE_AREA>  (1) 
95.94000000000001

>  <JCHEM_REFRACTIVITY>  (1) 
99.57460000000003

>  <JCHEM_ROTATABLE_BOND_COUNT>  (1) 
10

>  <JCHEM_RULE_OF_FIVE>  (1) 
1

>  <JCHEM_TRADITIONAL_IUPAC>  (1) 
enalapril

>  <JCHEM_VEBER_RULE>  (1) 
0

>  <MOLECULAR_WEIGHT>  (1) 
376.4467

>  <PRODUCTS>  (1) 
Act Enalapril; Apo-enalapril Maleate/hctz; Apo-enalapril Tab 10mg; Apo-enalapril Tab 2.5mg; Apo-enalapril Tab 20mg; Apo-enalapril Tab 5mg; Ava-enalapril; Dom-enalapril; Enalapril; Enalapril Maleate; Enalapril Maleate and Hydrochlorothiazide; Enalapril maleate and hydrochlorothiazide; Enalapril/hctz; Epaned; Mar-enalapril; Mylan-enalapril; Ntp-enalapril; Nu-enalapril; PMS-enalapril; Pro-enalapril - 10; Pro-enalapril - 2.5; Pro-enalapril - 20; Pro-enalapril - 5; Ran-enalapril; Ratio-enalapril; Riva-enalapril; Sandoz Enalapril; Sig-enalapril; Taro-enalapril; Teva-enalapril; Teva-enalapril/hctz; Vaseretic; Vasotec

>  <SALTS>  (1) 
Enalapril maleate; Enalapril sodium

>  <SECONDARY_ACCESSION_NUMBERS>  (1) 
APRD00510

>  <SMILES>  (1) 
CCOC(=O)[C@H](CCC1=CC=CC=C1)N[C@@H](C)C(=O)N1CCC[C@H]1C(O)=O

>  <SYNONYMS>  (1) 
Enalapril; Enalaprilum

$$$$
