127
     RDKit          2D

 40 39  0  0  0  0  0  0  0  0999 V2000
    4.9504    0.2063    0.0000 N   0  0  0  0  0  0  0  0  0  0  0  0
    8.5226   -0.2063    0.0000 N   0  0  0  0  0  0  0  0  0  0  0  0
    2.0928    0.2063    0.0000 N   0  0  0  0  0  0  0  0  0  0  0  0
   11.3804   -0.2063    0.0000 N   0  0  0  0  0  0  0  0  0  0  0  0
    6.3793    0.2063    0.0000 C   0  0  0  0  0  0  0  0  0  0  0  0
    7.0938   -0.2063    0.0000 C   0  0  0  0  0  0  0  0  0  0  0  0
    5.6650   -0.2063    0.0000 C   0  0  0  0  0  0  0  0  0  0  0  0
    7.8082    0.2063    0.0000 C   0  0  0  0  0  0  0  0  0  0  0  0
    4.2361   -0.2063    0.0000 C   0  0  0  0  0  0  0  0  0  0  0  0
    9.2371    0.2063    0.0000 C   0  0  0  0  0  0  0  0  0  0  0  0
    3.5217    0.2063    0.0000 C   0  0  0  0  0  0  0  0  0  0  0  0
    9.9515   -0.2063    0.0000 C   0  0  0  0  0  0  0  0  0  0  0  0
    2.8072   -0.2063    0.0000 C   0  0  0  0  0  0  0  0  0  0  0  0
   10.6658    0.2063    0.0000 C   0  0  0  0  0  0  0  0  0  0  0  0
    0.0000    0.0000    0.0000 H   0  0  0  0  0  0  0  0  0  0  0  0
    0.0000    0.0000    0.0000 H   0  0  0  0  0  0  0  0  0  0  0  0
    0.0000    0.0000    0.0000 H   0  0  0  0  0  0  0  0  0  0  0  0
    0.0000    0.0000    0.0000 H   0  0  0  0  0  0  0  0  0  0  0  0
    0.0000    0.0000    0.0000 H   0  0  0  0  0  0  0  0  0  0  0  0
    0.0000    0.0000    0.0000 H   0  0  0  0  0  0  0  0  0  0  0  0
    0.0000    0.0000    0.0000 H   0  0  0  0  0  0  0  0  0  0  0  0
    0.0000    0.0000    0.0000 H   0  0  0  0  0  0  0  0  0  0  0  0
    0.0000    0.0000    0.0000 H   0  0  0  0  0  0  0  0  0  0  0  0
    0.0000    0.0000    0.0000 H   0  0  0  0  0  0  0  0  0  0  0  0
    0.0000    0.0000    0.0000 H   0  0  0  0  0  0  0  0  0  0  0  0
    0.0000    0.0000    0.0000 H   0  0  0  0  0  0  0  0  0  0  0  0
    0.0000    0.0000    0.0000 H   0  0  0  0  0  0  0  0  0  0  0  0
    0.0000    0.0000    0.0000 H   0  0  0  0  0  0  0  0  0  0  0  0
    0.0000    0.0000    0.0000 H   0  0  0  0  0  0  0  0  0  0  0  0
    0.0000    0.0000    0.0000 H   0  0  0  0  0  0  0  0  0  0  0  0
    0.0000    0.0000    0.0000 H   0  0  0  0  0  0  0  0  0  0  0  0
    0.0000    0.0000    0.0000 H   0  0  0  0  0  0  0  0  0  0  0  0
    0.0000    0.0000    0.0000 H   0  0  0  0  0  0  0  0  0  0  0  0
    0.0000    0.0000    0.0000 H   0  0  0  0  0  0  0  0  0  0  0  0
    0.0000    0.0000    0.0000 H   0  0  0  0  0  0  0  0  0  0  0  0
    0.0000    0.0000    0.0000 H   0  0  0  0  0  0  0  0  0  0  0  0
    0.0000    0.0000    0.0000 H   0  0  0  0  0  0  0  0  0  0  0  0
    0.0000    0.0000    0.0000 H   0  0  0  0  0  0  0  0  0  0  0  0
    0.0000    0.0000    0.0000 H   0  0  0  0  0  0  0  0  0  0  0  0
    0.0000    0.0000    0.0000 H   0  0  0  0  0  0  0  0  0  0  0  0
  1  7  1  0
  1  9  1  0
  2  8  1  0
  2 10  1  0
  3 13  1  0
  4 14  1  0
  5  6  1  0
  5  7  1  0
  6  8  1  0
  9 11  1  0
 10 12  1  0
 11 13  1  0
 12 14  1  0
  1 15  1  0
  2 16  1  0
  3 17  1  0
  3 18  1  0
  4 19  1  0
  4 20  1  0
  5 21  1  0
  5 22  1  0
  6 23  1  0
  6 24  1  0
  7 25  1  0
  7 26  1  0
  8 27  1  0
  8 28  1  0
  9 29  1  0
  9 30  1  0
 10 31  1  0
 10 32  1  0
 11 33  1  0
 11 34  1  0
 12 35  1  0
 12 36  1  0
 13 37  1  0
 13 38  1  0
 14 39  1  0
 14 40  1  0
M  END
>  <ALOGPS_LOGP>  (1) 
-0.66

>  <ALOGPS_LOGS>  (1) 
-1.97

>  <ALOGPS_SOLUBILITY>  (1) 
2.19e+00 g/l

>  <DATABASE_ID>  (1) 
DB00127

>  <DATABASE_NAME>  (1) 
drugbank

>  <DRUGBANK_ID>  (1) 
DB00127

>  <DRUG_GROUPS>  (1) 
approved; nutraceutical

>  <EXACT_MASS>  (1) 
202.215746852

>  <FORMULA>  (1) 
C10H26N4

>  <GENERIC_NAME>  (1) 
Spermine

>  <INCHI_IDENTIFIER>  (1) 
InChI=1S/C10H26N4/c11-5-3-9-13-7-1-2-8-14-10-4-6-12/h13-14H,1-12H2

>  <INCHI_KEY>  (1) 
PFNFFQXMRSDOHW-UHFFFAOYSA-N

>  <JCHEM_ACCEPTOR_COUNT>  (1) 
4

>  <JCHEM_AVERAGE_POLARIZABILITY>  (1) 
26.694691643339333

>  <JCHEM_BIOAVAILABILITY>  (1) 
1

>  <JCHEM_DONOR_COUNT>  (1) 
4

>  <JCHEM_FORMAL_CHARGE>  (1) 
0

>  <JCHEM_GHOSE_FILTER>  (1) 
0

>  <JCHEM_IUPAC>  (1) 
(3-aminopropyl)({4-[(3-aminopropyl)amino]butyl})amine

>  <JCHEM_LOGP>  (1) 
-1.4540076160000006

>  <JCHEM_MDDR_LIKE_RULE>  (1) 
0

>  <JCHEM_NUMBER_OF_RINGS>  (1) 
0

>  <JCHEM_PHYSIOLOGICAL_CHARGE>  (1) 
4

>  <JCHEM_PKA_STRONGEST_BASIC>  (1) 
11.099251803165696

>  <JCHEM_POLAR_SURFACE_AREA>  (1) 
76.1

>  <JCHEM_REFRACTIVITY>  (1) 
62.558200000000014

>  <JCHEM_ROTATABLE_BOND_COUNT>  (1) 
11

>  <JCHEM_RULE_OF_FIVE>  (1) 
1

>  <JCHEM_TRADITIONAL_IUPAC>  (1) 
spermine

>  <JCHEM_VEBER_RULE>  (1) 
0

>  <MOLECULAR_WEIGHT>  (1) 
202.3402

>  <SALTS>  (1) 
Spermine dihydrate

>  <SECONDARY_ACCESSION_NUMBERS>  (1) 
NUTR00055; EXPT02947; DB02564

>  <SMILES>  (1) 
NCCCNCCCCNCCCN

>  <SYNONYMS>  (1) 
4,9-Diaza-1,12-dodecanediamine; 4,9-Diazadodecane-1,12-diamine; N,N'-Bis(3-aminopropyl)-1,4-butanediamine

$$$$
