195
     RDKit          2D

 51 52  0  0  1  0  0  0  0  0999 V2000
    2.7770   -3.1491    0.0000 O   0  0  0  0  0  0  0  0  0  0  0  0
    3.4916    1.3885    0.0000 O   0  0  0  0  0  0  0  0  0  0  0  0
    3.4916    3.0385    0.0000 O   0  0  0  0  0  0  0  0  0  0  0  0
    4.9205    3.8636    0.0000 N   0  0  0  0  0  0  0  0  0  0  0  0
    2.0625   -4.3866    0.0000 C   0  0  0  0  0  0  0  0  0  0  0  0
    2.4751   -5.1011    0.0000 C   0  0  0  0  0  0  0  0  0  0  0  0
    1.6500   -5.1011    0.0000 C   0  0  0  0  0  0  0  0  0  0  0  0
    2.0625   -3.5616    0.0000 C   0  0  0  0  0  0  0  0  0  0  0  0
    2.7770   -2.3241    0.0000 C   0  0  0  0  0  0  0  0  0  0  0  0
    3.4916   -1.9116    0.0000 C   0  0  0  0  0  0  0  0  0  0  0  0
    3.4916   -1.0865    0.0000 C   0  0  0  0  0  0  0  0  0  0  0  0
    4.2060    2.6260    0.0000 C   0  0  0  0  0  0  0  0  0  0  0  0
    4.9205    3.0385    0.0000 C   0  0  0  0  0  0  0  0  0  0  0  0
    5.6350    4.2761    0.0000 C   0  0  0  0  0  0  0  0  0  0  0  0
    4.2060    1.8010    0.0000 C   0  0  0  0  0  0  0  0  0  0  0  0
    2.7770   -0.6740    0.0000 C   0  0  0  0  0  0  0  0  0  0  0  0
    4.2060   -0.6740    0.0000 C   0  0  0  0  0  0  0  0  0  0  0  0
    3.4916    0.5635    0.0000 C   0  0  0  0  0  0  0  0  0  0  0  0
    6.3495    3.8636    0.0000 C   0  0  0  0  0  0  0  0  0  0  0  0
    5.6350    5.1011    0.0000 C   0  0  0  0  0  0  0  0  0  0  0  0
    2.7770    0.1510    0.0000 C   0  0  0  0  0  0  0  0  0  0  0  0
    4.2060    0.1510    0.0000 C   0  0  0  0  0  0  0  0  0  0  0  0
    0.0000    0.0000    0.0000 H   0  0  0  0  0  0  0  0  0  0  0  0
    0.0000    0.0000    0.0000 H   0  0  0  0  0  0  0  0  0  0  0  0
    0.0000    0.0000    0.0000 H   0  0  0  0  0  0  0  0  0  0  0  0
    0.0000    0.0000    0.0000 H   0  0  0  0  0  0  0  0  0  0  0  0
    0.0000    0.0000    0.0000 H   0  0  0  0  0  0  0  0  0  0  0  0
    0.0000    0.0000    0.0000 H   0  0  0  0  0  0  0  0  0  0  0  0
    0.0000    0.0000    0.0000 H   0  0  0  0  0  0  0  0  0  0  0  0
    0.0000    0.0000    0.0000 H   0  0  0  0  0  0  0  0  0  0  0  0
    0.0000    0.0000    0.0000 H   0  0  0  0  0  0  0  0  0  0  0  0
    0.0000    0.0000    0.0000 H   0  0  0  0  0  0  0  0  0  0  0  0
    0.0000    0.0000    0.0000 H   0  0  0  0  0  0  0  0  0  0  0  0
    0.0000    0.0000    0.0000 H   0  0  0  0  0  0  0  0  0  0  0  0
    0.0000    0.0000    0.0000 H   0  0  0  0  0  0  0  0  0  0  0  0
    0.0000    0.0000    0.0000 H   0  0  0  0  0  0  0  0  0  0  0  0
    0.0000    0.0000    0.0000 H   0  0  0  0  0  0  0  0  0  0  0  0
    0.0000    0.0000    0.0000 H   0  0  0  0  0  0  0  0  0  0  0  0
    0.0000    0.0000    0.0000 H   0  0  0  0  0  0  0  0  0  0  0  0
    0.0000    0.0000    0.0000 H   0  0  0  0  0  0  0  0  0  0  0  0
    0.0000    0.0000    0.0000 H   0  0  0  0  0  0  0  0  0  0  0  0
    0.0000    0.0000    0.0000 H   0  0  0  0  0  0  0  0  0  0  0  0
    0.0000    0.0000    0.0000 H   0  0  0  0  0  0  0  0  0  0  0  0
    0.0000    0.0000    0.0000 H   0  0  0  0  0  0  0  0  0  0  0  0
    0.0000    0.0000    0.0000 H   0  0  0  0  0  0  0  0  0  0  0  0
    0.0000    0.0000    0.0000 H   0  0  0  0  0  0  0  0  0  0  0  0
    0.0000    0.0000    0.0000 H   0  0  0  0  0  0  0  0  0  0  0  0
    0.0000    0.0000    0.0000 H   0  0  0  0  0  0  0  0  0  0  0  0
    0.0000    0.0000    0.0000 H   0  0  0  0  0  0  0  0  0  0  0  0
    0.0000    0.0000    0.0000 H   0  0  0  0  0  0  0  0  0  0  0  0
    0.0000    0.0000    0.0000 H   0  0  0  0  0  0  0  0  0  0  0  0
  1  8  1  0
  1  9  1  0
  2 15  1  0
  2 18  1  0
  3 12  1  0
  4 13  1  0
  4 14  1  0
  5  6  1  0
  5  7  1  0
  5  8  1  0
  6  7  1  0
  9 10  1  0
 10 11  1  0
 11 16  2  0
 11 17  1  0
 12 13  1  0
 12 15  1  0
 14 19  1  0
 14 20  1  0
 16 21  1  0
 17 22  2  0
 18 21  2  0
 18 22  1  0
  3 23  1  0
  4 24  1  0
  5 25  1  0
  6 26  1  0
  6 27  1  0
  7 28  1  0
  7 29  1  0
  8 30  1  0
  8 31  1  0
  9 32  1  0
  9 33  1  0
 10 34  1  0
 10 35  1  0
 12 36  1  0
 13 37  1  0
 13 38  1  0
 14 39  1  0
 15 40  1  0
 15 41  1  0
 16 42  1  0
 17 43  1  0
 19 44  1  0
 19 45  1  0
 19 46  1  0
 20 47  1  0
 20 48  1  0
 20 49  1  0
 21 50  1  0
 22 51  1  0
M  END
>  <ALOGPS_LOGP>  (1) 
3.00

>  <ALOGPS_LOGS>  (1) 
-4.01

>  <ALOGPS_SOLUBILITY>  (1) 
2.98e-02 g/l

>  <DATABASE_ID>  (1) 
DB00195

>  <DATABASE_NAME>  (1) 
drugbank

>  <DRUGBANK_ID>  (1) 
DB00195

>  <DRUG_GROUPS>  (1) 
approved

>  <EXACT_MASS>  (1) 
307.214743799

>  <FORMULA>  (1) 
C18H29NO3

>  <GENERIC_NAME>  (1) 
Betaxolol

>  <INCHI_IDENTIFIER>  (1) 
InChI=1S/C18H29NO3/c1-14(2)19-11-17(20)13-22-18-7-5-15(6-8-18)9-10-21-12-16-3-4-16/h5-8,14,16-17,19-20H,3-4,9-13H2,1-2H3

>  <INCHI_KEY>  (1) 
NWIUTZDMDHAVTP-UHFFFAOYSA-N

>  <INTERNATIONAL_BRANDS>  (1) 
Betaxon; Betoptic; Kerlone

>  <JCHEM_ACCEPTOR_COUNT>  (1) 
4

>  <JCHEM_AVERAGE_POLARIZABILITY>  (1) 
37.05289125557385

>  <JCHEM_BIOAVAILABILITY>  (1) 
1

>  <JCHEM_DONOR_COUNT>  (1) 
2

>  <JCHEM_FORMAL_CHARGE>  (1) 
0

>  <JCHEM_GHOSE_FILTER>  (1) 
1

>  <JCHEM_IUPAC>  (1) 
1-{4-[2-(cyclopropylmethoxy)ethyl]phenoxy}-3-[(propan-2-yl)amino]propan-2-ol

>  <JCHEM_LOGP>  (1) 
2.539234387333333

>  <JCHEM_MDDR_LIKE_RULE>  (1) 
0

>  <JCHEM_NUMBER_OF_RINGS>  (1) 
2

>  <JCHEM_PHYSIOLOGICAL_CHARGE>  (1) 
1

>  <JCHEM_PKA_STRONGEST_ACIDIC>  (1) 
14.087971415863102

>  <JCHEM_PKA_STRONGEST_BASIC>  (1) 
9.666166605708497

>  <JCHEM_POLAR_SURFACE_AREA>  (1) 
50.72

>  <JCHEM_REFRACTIVITY>  (1) 
88.63960000000003

>  <JCHEM_ROTATABLE_BOND_COUNT>  (1) 
11

>  <JCHEM_RULE_OF_FIVE>  (1) 
1

>  <JCHEM_TRADITIONAL_IUPAC>  (1) 
1-{4-[2-(cyclopropylmethoxy)ethyl]phenoxy}-3-(isopropylamino)propan-2-ol

>  <JCHEM_VEBER_RULE>  (1) 
0

>  <MOLECULAR_WEIGHT>  (1) 
307.4278

>  <PRODUCTS>  (1) 
Betaxolol; Betaxolol Hydrochloride; Betoptic Liq; Betoptic S; Betoptic/pilo; Novo-betaxolol; Sandoz Betaxolol

>  <SALTS>  (1) 
Betaxolol Hydrochloride

>  <SECONDARY_ACCESSION_NUMBERS>  (1) 
APRD00245

>  <SMILES>  (1) 
CC(C)NCC(O)COC1=CC=C(CCOCC2CC2)C=C1

>  <SYNONYMS>  (1) 
Betaxololum

$$$$
