425
     RDKit          2D

 44 46  0  0  0  0  0  0  0  0999 V2000
    3.4722    0.5743    0.0000 O   0  0  0  0  0  0  0  0  0  0  0  0
    3.7935   -0.9052    0.0000 N   0  0  0  0  0  0  0  0  0  0  0  0
    4.5741   -1.9816    0.0000 N   0  0  0  0  0  0  0  0  0  0  0  0
    4.5358    1.5287    0.0000 N   0  0  0  0  0  0  0  0  0  0  0  0
    4.5741   -0.6538    0.0000 C   0  0  0  0  0  0  0  0  0  0  0  0
    5.0556   -1.3177    0.0000 C   0  0  0  0  0  0  0  0  0  0  0  0
    3.7935   -1.7302    0.0000 C   0  0  0  0  0  0  0  0  0  0  0  0
    4.8305    0.1304    0.0000 C   0  0  0  0  0  0  0  0  0  0  0  0
    5.8806   -1.3177    0.0000 C   0  0  0  0  0  0  0  0  0  0  0  0
    3.0791   -0.4927    0.0000 C   0  0  0  0  0  0  0  0  0  0  0  0
    2.3645   -0.9052    0.0000 C   0  0  0  0  0  0  0  0  0  0  0  0
    3.0791   -2.1427    0.0000 C   0  0  0  0  0  0  0  0  0  0  0  0
    4.2795    0.7445    0.0000 C   0  0  0  0  0  0  0  0  0  0  0  0
    2.3645   -1.7302    0.0000 C   0  0  0  0  0  0  0  0  0  0  0  0
    6.2932   -2.0322    0.0000 C   0  0  0  0  0  0  0  0  0  0  0  0
    6.2932   -0.6033    0.0000 C   0  0  0  0  0  0  0  0  0  0  0  0
    1.6500   -0.4927    0.0000 C   0  0  0  0  0  0  0  0  0  0  0  0
    7.5307   -1.3177    0.0000 C   0  0  0  0  0  0  0  0  0  0  0  0
    7.1182   -2.0322    0.0000 C   0  0  0  0  0  0  0  0  0  0  0  0
    7.1182   -0.6033    0.0000 C   0  0  0  0  0  0  0  0  0  0  0  0
    3.9848    2.1427    0.0000 C   0  0  0  0  0  0  0  0  0  0  0  0
    5.3431    1.6988    0.0000 C   0  0  0  0  0  0  0  0  0  0  0  0
    8.3557   -1.3177    0.0000 C   0  0  0  0  0  0  0  0  0  0  0  0
    0.0000    0.0000    0.0000 H   0  0  0  0  0  0  0  0  0  0  0  0
    0.0000    0.0000    0.0000 H   0  0  0  0  0  0  0  0  0  0  0  0
    0.0000    0.0000    0.0000 H   0  0  0  0  0  0  0  0  0  0  0  0
    0.0000    0.0000    0.0000 H   0  0  0  0  0  0  0  0  0  0  0  0
    0.0000    0.0000    0.0000 H   0  0  0  0  0  0  0  0  0  0  0  0
    0.0000    0.0000    0.0000 H   0  0  0  0  0  0  0  0  0  0  0  0
    0.0000    0.0000    0.0000 H   0  0  0  0  0  0  0  0  0  0  0  0
    0.0000    0.0000    0.0000 H   0  0  0  0  0  0  0  0  0  0  0  0
    0.0000    0.0000    0.0000 H   0  0  0  0  0  0  0  0  0  0  0  0
    0.0000    0.0000    0.0000 H   0  0  0  0  0  0  0  0  0  0  0  0
    0.0000    0.0000    0.0000 H   0  0  0  0  0  0  0  0  0  0  0  0
    0.0000    0.0000    0.0000 H   0  0  0  0  0  0  0  0  0  0  0  0
    0.0000    0.0000    0.0000 H   0  0  0  0  0  0  0  0  0  0  0  0
    0.0000    0.0000    0.0000 H   0  0  0  0  0  0  0  0  0  0  0  0
    0.0000    0.0000    0.0000 H   0  0  0  0  0  0  0  0  0  0  0  0
    0.0000    0.0000    0.0000 H   0  0  0  0  0  0  0  0  0  0  0  0
    0.0000    0.0000    0.0000 H   0  0  0  0  0  0  0  0  0  0  0  0
    0.0000    0.0000    0.0000 H   0  0  0  0  0  0  0  0  0  0  0  0
    0.0000    0.0000    0.0000 H   0  0  0  0  0  0  0  0  0  0  0  0
    0.0000    0.0000    0.0000 H   0  0  0  0  0  0  0  0  0  0  0  0
    0.0000    0.0000    0.0000 H   0  0  0  0  0  0  0  0  0  0  0  0
  1 13  2  0
  2  5  1  0
  2  7  1  0
  2 10  1  0
  3  6  1  0
  3  7  2  0
  4 13  1  0
  4 21  1  0
  4 22  1  0
  5  6  2  0
  5  8  1  0
  6  9  1  0
  7 12  1  0
  8 13  1  0
  9 15  2  0
  9 16  1  0
 10 11  2  0
 11 14  1  0
 11 17  1  0
 12 14  2  0
 15 19  1  0
 16 20  2  0
 18 19  2  0
 18 20  1  0
 18 23  1  0
  8 24  1  0
  8 25  1  0
 10 26  1  0
 12 27  1  0
 14 28  1  0
 15 29  1  0
 16 30  1  0
 17 31  1  0
 17 32  1  0
 17 33  1  0
 19 34  1  0
 20 35  1  0
 21 36  1  0
 21 37  1  0
 21 38  1  0
 22 39  1  0
 22 40  1  0
 22 41  1  0
 23 42  1  0
 23 43  1  0
 23 44  1  0
M  END
>  <ALOGPS_LOGP>  (1) 
3.15

>  <ALOGPS_LOGS>  (1) 
-3.99

>  <ALOGPS_SOLUBILITY>  (1) 
3.13e-02 g/l

>  <DATABASE_ID>  (1) 
DB00425

>  <DATABASE_NAME>  (1) 
drugbank

>  <DRUGBANK_ID>  (1) 
DB00425

>  <DRUG_GROUPS>  (1) 
approved

>  <EXACT_MASS>  (1) 
307.168462309

>  <FORMULA>  (1) 
C19H21N3O

>  <GENERIC_NAME>  (1) 
Zolpidem

>  <INCHI_IDENTIFIER>  (1) 
InChI=1S/C19H21N3O/c1-13-5-8-15(9-6-13)19-16(11-18(23)21(3)4)22-12-14(2)7-10-17(22)20-19/h5-10,12H,11H2,1-4H3

>  <INCHI_KEY>  (1) 
ZAFYATHCZYHLPB-UHFFFAOYSA-N

>  <INTERNATIONAL_BRANDS>  (1) 
Adormix; Bikalm; Dormizol; Hypnogen; Ivedal; Nasen; Nimadorm; Nottem; Stilnoct; Stilnox; Stilnox CR; Zolsana; Zoltis

>  <JCHEM_ACCEPTOR_COUNT>  (1) 
2

>  <JCHEM_AVERAGE_POLARIZABILITY>  (1) 
35.06322364459639

>  <JCHEM_BIOAVAILABILITY>  (1) 
1

>  <JCHEM_DONOR_COUNT>  (1) 
0

>  <JCHEM_FORMAL_CHARGE>  (1) 
0

>  <JCHEM_GHOSE_FILTER>  (1) 
1

>  <JCHEM_IUPAC>  (1) 
N,N-dimethyl-2-[6-methyl-2-(4-methylphenyl)imidazo[1,2-a]pyridin-3-yl]acetamide

>  <JCHEM_LOGP>  (1) 
3.0176268213333337

>  <JCHEM_MDDR_LIKE_RULE>  (1) 
0

>  <JCHEM_NUMBER_OF_RINGS>  (1) 
3

>  <JCHEM_PHYSIOLOGICAL_CHARGE>  (1) 
0

>  <JCHEM_PKA_STRONGEST_BASIC>  (1) 
5.653587740811252

>  <JCHEM_POLAR_SURFACE_AREA>  (1) 
37.61000000000001

>  <JCHEM_REFRACTIVITY>  (1) 
93.58370000000001

>  <JCHEM_ROTATABLE_BOND_COUNT>  (1) 
3

>  <JCHEM_RULE_OF_FIVE>  (1) 
1

>  <JCHEM_TRADITIONAL_IUPAC>  (1) 
zolpidem

>  <JCHEM_VEBER_RULE>  (1) 
1

>  <MOLECULAR_WEIGHT>  (1) 
307.3895

>  <PRODUCTS>  (1) 
Ambien; Ambien CR; Apo-zolpidem ODT; Edluar; Gabazolpidem-5; Intermezzo; Ivadal; PMS-zolpidem ODT; Sentrazolpidem PM-5; Sublinox; ZolpiMIST; Zolpidem; Zolpidem Tartrate; Zolpidem Tartrate Extended Release; Zolpidem Tartrate Extended-Release; Zolpidem Tartrate ODT; Zolpidem tartrate; Zolpidem tartrate sublingual; Zolpimist

>  <SALTS>  (1) 
Zolpidem tartrate

>  <SECONDARY_ACCESSION_NUMBERS>  (1) 
APRD00095

>  <SMILES>  (1) 
CN(C)C(=O)CC1=C(N=C2C=CC(C)=CN12)C1=CC=C(C)C=C1

>  <SYNONYMS>  (1) 
N,N,6-Trimethyl-2-(4-methylphenyl)imidazo(1,2-a)pyridine-3-acetamide; Zolpidem; Zolpidemum

$$$$
