
     RDKit          2D

 35 36  0  0  1  0  0  0  0  0999 V2000
   16.8537   -6.8636    0.0000 C   0  0  0  0  0  0  0  0  0  0  0  0
   16.8537   -6.0579    0.0000 C   0  0  0  0  0  0  0  0  0  0  0  0
   16.1375   -7.2933    0.0000 S   0  0  0  0  0  0  0  0  0  0  0  0
   17.6415   -7.1322    0.0000 S   0  0  0  0  0  0  0  0  0  0  0  0
   16.1375   -5.6460    0.0000 C   0  0  0  0  0  0  0  0  0  0  0  0
   17.6415   -5.7893    0.0000 C   0  0  0  0  0  0  0  0  0  0  0  0
   15.4213   -6.8636    0.0000 C   0  0  0  0  0  0  0  0  0  0  0  0
   15.7257   -7.9916    0.0000 O   0  0  0  0  0  0  0  0  0  0  0  0
   16.5135   -7.9916    0.0000 O   0  0  0  0  0  0  0  0  0  0  0  0
   18.1071   -6.4697    0.0000 C   0  0  0  0  0  0  0  0  0  0  0  0
   15.4213   -6.0579    0.0000 C   0  0  0  0  0  0  0  0  0  0  0  0
   16.1375   -4.8045    0.0000 N   0  0  0  0  0  0  0  0  0  0  0  0
   14.7230   -7.2933    0.0000 C   0  0  0  0  0  0  0  0  0  0  0  0
   18.9307   -6.4697    0.0000 S   0  0  0  0  0  0  0  0  0  0  0  0
   19.3425   -7.1859    0.0000 N   0  0  0  0  0  0  0  0  0  0  0  0
   18.9307   -5.6460    0.0000 O   0  0  0  0  0  0  0  0  0  0  0  0
   19.6469   -6.0758    0.0000 O   0  0  0  0  0  0  0  0  0  0  0  0
   15.4182   -4.3995    0.0000 C   0  0  0  0  0  0  0  0  0  0  0  0
   14.7072   -4.8202    0.0000 C   0  0  0  0  0  0  0  0  0  0  0  0
    0.0000    0.0000    0.0000 H   0  0  0  0  0  0  0  0  0  0  0  0
    0.0000    0.0000    0.0000 H   0  0  0  0  0  0  0  0  0  0  0  0
    0.0000    0.0000    0.0000 H   0  0  0  0  0  0  0  0  0  0  0  0
    0.0000    0.0000    0.0000 H   0  0  0  0  0  0  0  0  0  0  0  0
    0.0000    0.0000    0.0000 H   0  0  0  0  0  0  0  0  0  0  0  0
    0.0000    0.0000    0.0000 H   0  0  0  0  0  0  0  0  0  0  0  0
    0.0000    0.0000    0.0000 H   0  0  0  0  0  0  0  0  0  0  0  0
    0.0000    0.0000    0.0000 H   0  0  0  0  0  0  0  0  0  0  0  0
    0.0000    0.0000    0.0000 H   0  0  0  0  0  0  0  0  0  0  0  0
    0.0000    0.0000    0.0000 H   0  0  0  0  0  0  0  0  0  0  0  0
    0.0000    0.0000    0.0000 H   0  0  0  0  0  0  0  0  0  0  0  0
    0.0000    0.0000    0.0000 H   0  0  0  0  0  0  0  0  0  0  0  0
    0.0000    0.0000    0.0000 H   0  0  0  0  0  0  0  0  0  0  0  0
    0.0000    0.0000    0.0000 H   0  0  0  0  0  0  0  0  0  0  0  0
    0.0000    0.0000    0.0000 H   0  0  0  0  0  0  0  0  0  0  0  0
    0.0000    0.0000    0.0000 H   0  0  0  0  0  0  0  0  0  0  0  0
  2  1  2  0
  3  1  1  0
  4  1  1  0
  5  2  1  0
  6  2  1  0
  7  3  1  0
  8  3  2  0
  9  3  2  0
 10  4  1  0
 11  5  1  0
  5 12  1  6
 10  6  2  0
  7 13  1  1
 11  7  1  0
 14 10  1  0
 15 14  1  0
 16 14  2  0
 17 14  2  0
 12 18  1  0
 18 19  1  0
  5 20  1  0
  6 21  1  0
  7 22  1  0
 11 23  1  0
 11 24  1  0
 12 25  1  0
 13 26  1  0
 13 27  1  0
 13 28  1  0
 15 29  1  0
 15 30  1  0
 18 31  1  0
 18 32  1  0
 19 33  1  0
 19 34  1  0
 19 35  1  0
M  END
>  <ALOGPS_LOGP>  (1) 
-0.50

>  <ALOGPS_LOGS>  (1) 
-2.67

>  <ALOGPS_SOLUBILITY>  (1) 
6.99e-01 g/l

>  <DATABASE_ID>  (1) 
DB00869

>  <DATABASE_NAME>  (1) 
drugbank

>  <DRUGBANK_ID>  (1) 
DB00869

>  <DRUG_GROUPS>  (1) 
approved

>  <EXACT_MASS>  (1) 
324.02721908

>  <FORMULA>  (1) 
C10H16N2O4S3

>  <GENERIC_NAME>  (1) 
Dorzolamide

>  <INCHI_IDENTIFIER>  (1) 
InChI=1S/C10H16N2O4S3/c1-3-12-8-4-6(2)18(13,14)10-7(8)5-9(17-10)19(11,15)16/h5-6,8,12H,3-4H2,1-2H3,(H2,11,15,16)/t6-,8-/m0/s1

>  <INCHI_KEY>  (1) 
IAVUPMFITXYVAF-XPUUQOCRSA-N

>  <JCHEM_ACCEPTOR_COUNT>  (1) 
5

>  <JCHEM_AVERAGE_POLARIZABILITY>  (1) 
31.55452028867875

>  <JCHEM_BIOAVAILABILITY>  (1) 
1

>  <JCHEM_DONOR_COUNT>  (1) 
2

>  <JCHEM_FORMAL_CHARGE>  (1) 
0

>  <JCHEM_GHOSE_FILTER>  (1) 
1

>  <JCHEM_IUPAC>  (1) 
(2S,4S)-4-(ethylamino)-2-methyl-1,1-dioxo-2H,3H,4H-1λ⁶-thieno[2,3-b]thiopyran-6-sulfonamide

>  <JCHEM_LOGP>  (1) 
-0.15111351272826437

>  <JCHEM_MDDR_LIKE_RULE>  (1) 
0

>  <JCHEM_NUMBER_OF_RINGS>  (1) 
2

>  <JCHEM_PHYSIOLOGICAL_CHARGE>  (1) 
1

>  <JCHEM_PKA>  (1) 
19.427629743617562

>  <JCHEM_PKA_STRONGEST_ACIDIC>  (1) 
8.184278107455052

>  <JCHEM_PKA_STRONGEST_BASIC>  (1) 
7.1401997858992345

>  <JCHEM_POLAR_SURFACE_AREA>  (1) 
106.32999999999998

>  <JCHEM_REFRACTIVITY>  (1) 
72.46110000000002

>  <JCHEM_ROTATABLE_BOND_COUNT>  (1) 
3

>  <JCHEM_RULE_OF_FIVE>  (1) 
1

>  <JCHEM_TRADITIONAL_IUPAC>  (1) 
dorzolamide

>  <JCHEM_VEBER_RULE>  (1) 
0

>  <MOLECULAR_WEIGHT>  (1) 
324.44

>  <PRODUCTS>  (1) 
Act Dorzotimolol; Apo-dorzo-timop; Apo-dorzolamide; Cosopt; Cosopt PF; Dorzolamide; Dorzolamide HCl; Dorzolamide HCl /Timolol Maleate; Dorzolamide HCl and Timolol Maleate; Dorzolamide Hydrochloride; Dorzolamide Hydrochloride Ophthalmic Solution; Dorzolamide Hydrochloride Ophthalmic Solution 2%, 10mL Ophthalmic Solution 2%, 10mL; Dorzolamide Hydrochloride and Timolol Maleate; Dorzolamide Hydrochloride and Timolol Maleate Ophthalmic Solution; Dorzolamide Hydrochloride-Timolol Maleate; Dorzolamide Hydrochloride-Timolol Maleate Ophthalmic Solution Sterile Ophthalmic Solution; Dorzolamide Hydrochloride-timolol Maleate; Jamp-dorzolamide; Jamp-dorzolamide/timolol; Med-dorzolamide; Med-dorzolamide-timolol; Mint-dorzolamide/timolol; Mylan-dorzolamide/timolol; PMS-dorzolamide-timolol; Riva-dorzolamide; Riva-dorzolamide/timolol; Sandoz Dorzolamide; Sandoz Dorzolamide/timolol; Teva-dorzotimol; Trusopt; Van-dorzolamide-timolol

>  <SALTS>  (1) 
Dorzolamide Hydrochloride

>  <SECONDARY_ACCESSION_NUMBERS>  (1) 
APRD00577; DB04507

>  <SMILES>  (1) 
CCN[C@H]1C[C@H](C)S(=O)(=O)C2=C1C=C(S2)S(N)(=O)=O

>  <SYNONYMS>  (1) 
Dorzolamid; Dorzolamida; Dorzolamide; Dorzolamidum

$$$$
