218
     RDKit          2D

 53 57  0  0  1  0  0  0  0  0999 V2000
    4.1869    1.4711    0.0000 F   0  0  0  0  0  0  0  0  0  0  0  0
    5.6158   -1.0040    0.0000 O   0  0  0  0  0  0  0  0  0  0  0  0
    7.0583    2.3247    0.0000 O   0  0  0  0  0  0  0  0  0  0  0  0
    9.2443    1.0813    0.0000 O   0  0  0  0  0  0  0  0  0  0  0  0
    8.5251    2.3161    0.0000 O   0  0  0  0  0  0  0  0  0  0  0  0
    4.1869   -0.1789    0.0000 N   0  0  0  0  0  0  0  0  0  0  0  0
    2.8876   -1.8817    0.0000 N   0  0  0  0  0  0  0  0  0  0  0  0
    7.0678   -0.2075    0.0000 N   0  0  0  0  0  0  0  0  0  0  0  0
    2.8876   -0.4528    0.0000 C   0  0  0  0  0  0  0  0  0  0  0  0
    3.3001   -1.1672    0.0000 C   0  0  0  0  0  0  0  0  0  0  0  0
    3.4379    0.1554    0.0000 C   0  0  0  0  0  0  0  0  0  0  0  0
    4.1018   -0.9946    0.0000 C   0  0  0  0  0  0  0  0  0  0  0  0
    2.0625   -0.4528    0.0000 C   0  0  0  0  0  0  0  0  0  0  0  0
    7.0583   -1.0324    0.0000 C   0  0  0  0  0  0  0  0  0  0  0  0
    1.6500   -1.1672    0.0000 C   0  0  0  0  0  0  0  0  0  0  0  0
    6.6375   -1.7421    0.0000 C   0  0  0  0  0  0  0  0  0  0  0  0
    7.4625   -1.7517    0.0000 C   0  0  0  0  0  0  0  0  0  0  0  0
    2.0625   -1.8817    0.0000 C   0  0  0  0  0  0  0  0  0  0  0  0
    4.9014    0.2336    0.0000 C   0  0  0  0  0  0  0  0  0  0  0  0
    6.3303    0.2336    0.0000 C   0  0  0  0  0  0  0  0  0  0  0  0
    5.6158   -0.1789    0.0000 C   0  0  0  0  0  0  0  0  0  0  0  0
    6.3303    1.0586    0.0000 C   0  0  0  0  0  0  0  0  0  0  0  0
    4.9014    1.0586    0.0000 C   0  0  0  0  0  0  0  0  0  0  0  0
    7.8154    0.2164    0.0000 C   0  0  0  0  0  0  0  0  0  0  0  0
    5.6158    1.4711    0.0000 C   0  0  0  0  0  0  0  0  0  0  0  0
    7.8154    1.0758    0.0000 C   0  0  0  0  0  0  0  0  0  0  0  0
    7.0678    1.4997    0.0000 C   0  0  0  0  0  0  0  0  0  0  0  0
    8.5282    1.4911    0.0000 C   0  0  0  0  0  0  0  0  0  0  0  0
    4.9014   -1.4165    0.0000 C   0  0  0  0  0  0  0  0  0  0  0  0
    0.0000    0.0000    0.0000 H   0  0  0  0  0  0  0  0  0  0  0  0
    0.0000    0.0000    0.0000 H   0  0  0  0  0  0  0  0  0  0  0  0
    0.0000    0.0000    0.0000 H   0  0  0  0  0  0  0  0  0  0  0  0
    0.0000    0.0000    0.0000 H   0  0  0  0  0  0  0  0  0  0  0  0
    0.0000    0.0000    0.0000 H   0  0  0  0  0  0  0  0  0  0  0  0
    0.0000    0.0000    0.0000 H   0  0  0  0  0  0  0  0  0  0  0  0
    0.0000    0.0000    0.0000 H   0  0  0  0  0  0  0  0  0  0  0  0
    0.0000    0.0000    0.0000 H   0  0  0  0  0  0  0  0  0  0  0  0
    0.0000    0.0000    0.0000 H   0  0  0  0  0  0  0  0  0  0  0  0
    0.0000    0.0000    0.0000 H   0  0  0  0  0  0  0  0  0  0  0  0
    0.0000    0.0000    0.0000 H   0  0  0  0  0  0  0  0  0  0  0  0
    0.0000    0.0000    0.0000 H   0  0  0  0  0  0  0  0  0  0  0  0
    0.0000    0.0000    0.0000 H   0  0  0  0  0  0  0  0  0  0  0  0
    0.0000    0.0000    0.0000 H   0  0  0  0  0  0  0  0  0  0  0  0
    0.0000    0.0000    0.0000 H   0  0  0  0  0  0  0  0  0  0  0  0
    0.0000    0.0000    0.0000 H   0  0  0  0  0  0  0  0  0  0  0  0
    0.0000    0.0000    0.0000 H   0  0  0  0  0  0  0  0  0  0  0  0
    0.0000    0.0000    0.0000 H   0  0  0  0  0  0  0  0  0  0  0  0
    0.0000    0.0000    0.0000 H   0  0  0  0  0  0  0  0  0  0  0  0
    0.0000    0.0000    0.0000 H   0  0  0  0  0  0  0  0  0  0  0  0
    0.0000    0.0000    0.0000 H   0  0  0  0  0  0  0  0  0  0  0  0
    0.0000    0.0000    0.0000 H   0  0  0  0  0  0  0  0  0  0  0  0
    0.0000    0.0000    0.0000 H   0  0  0  0  0  0  0  0  0  0  0  0
    0.0000    0.0000    0.0000 H   0  0  0  0  0  0  0  0  0  0  0  0
  1 23  1  0
  2 21  1  0
  2 29  1  0
  3 27  2  0
  4 28  1  0
  5 28  2  0
  6 11  1  0
  6 12  1  0
  6 19  1  0
  7 10  1  0
  7 18  1  0
  8 14  1  0
  8 20  1  0
  8 24  1  0
  9 10  1  0
  9 11  1  0
  9 13  1  0
 10 12  1  0
 13 15  1  0
 14 16  1  0
 14 17  1  0
 15 18  1  0
 16 17  1  0
 19 21  2  0
 19 23  1  0
 20 21  1  0
 20 22  2  0
 22 25  1  0
 22 27  1  0
 23 25  2  0
 24 26  2  0
 26 27  1  0
 26 28  1  0
  4 30  1  0
  7 31  1  0
  9 32  1  6
 10 33  1  6
 11 34  1  0
 11 35  1  0
 12 36  1  0
 12 37  1  0
 13 38  1  0
 13 39  1  0
 14 40  1  0
 15 41  1  0
 15 42  1  0
 16 43  1  0
 16 44  1  0
 17 45  1  0
 17 46  1  0
 18 47  1  0
 18 48  1  0
 24 49  1  0
 25 50  1  0
 29 51  1  0
 29 52  1  0
 29 53  1  0
M  END
>  <ALOGPS_LOGP>  (1) 
0.01

>  <ALOGPS_LOGS>  (1) 
-3.38

>  <ALOGPS_SOLUBILITY>  (1) 
1.68e-01 g/l

>  <DATABASE_ID>  (1) 
DB00218

>  <DATABASE_NAME>  (1) 
drugbank

>  <DRUGBANK_ID>  (1) 
DB00218

>  <DRUG_GROUPS>  (1) 
approved; investigational

>  <EXACT_MASS>  (1) 
401.175084476

>  <FORMULA>  (1) 
C21H24FN3O4

>  <GENERIC_NAME>  (1) 
Moxifloxacin

>  <INCHI_IDENTIFIER>  (1) 
InChI=1S/C21H24FN3O4/c1-29-20-17-13(19(26)14(21(27)28)9-25(17)12-4-5-12)7-15(22)18(20)24-8-11-3-2-6-23-16(11)10-24/h7,9,11-12,16,23H,2-6,8,10H2,1H3,(H,27,28)/t11-,16+/m0/s1

>  <INCHI_KEY>  (1) 
FABPRXSRWADJSP-MEDUHNTESA-N

>  <JCHEM_ACCEPTOR_COUNT>  (1) 
7

>  <JCHEM_AVERAGE_POLARIZABILITY>  (1) 
41.24465784304949

>  <JCHEM_BIOAVAILABILITY>  (1) 
1

>  <JCHEM_DONOR_COUNT>  (1) 
2

>  <JCHEM_FORMAL_CHARGE>  (1) 
0

>  <JCHEM_GHOSE_FILTER>  (1) 
0

>  <JCHEM_IUPAC>  (1) 
7-[(4aS,7aS)-octahydro-1H-pyrrolo[3,4-b]pyridin-6-yl]-1-cyclopropyl-6-fluoro-8-methoxy-4-oxo-1,4-dihydroquinoline-3-carboxylic acid

>  <JCHEM_LOGP>  (1) 
-0.4989749388152805

>  <JCHEM_MDDR_LIKE_RULE>  (1) 
0

>  <JCHEM_NUMBER_OF_RINGS>  (1) 
5

>  <JCHEM_PHYSIOLOGICAL_CHARGE>  (1) 
0

>  <JCHEM_PKA_STRONGEST_ACIDIC>  (1) 
5.6861297847146455

>  <JCHEM_PKA_STRONGEST_BASIC>  (1) 
9.423932936543999

>  <JCHEM_POLAR_SURFACE_AREA>  (1) 
82.11

>  <JCHEM_REFRACTIVITY>  (1) 
106.22399999999999

>  <JCHEM_ROTATABLE_BOND_COUNT>  (1) 
4

>  <JCHEM_RULE_OF_FIVE>  (1) 
1

>  <JCHEM_TRADITIONAL_IUPAC>  (1) 
moxifloxacin

>  <JCHEM_VEBER_RULE>  (1) 
0

>  <MOLECULAR_WEIGHT>  (1) 
401.4314

>  <PRODUCTS>  (1) 
Act Moxifloxacin; Apo-moxifloxacin; Auro-moxifloxacin; Avelox; Avelox ABC Pack; Avelox I.V.; Bio-moxifloxacin; Dom-moxifloxacin; Ipg-moxifloxacin; Jamp-moxifloxacin; Jamp-moxifloxacin Tablets; Mar-moxifloxacin; Med-moxifloxacin; Moxeza; Moxifloxacin; Moxifloxacin Hydrochloride; Moxifloxacin Hydrochloride Tablets, 400 mg; Moxifloxacin Injection; Moxifloxacin Ophthalmic Solution; Mylan-moxifloxacin; Mylan-moxifloxacin HCl Ophthalmic Solution; PHL-moxifloxacin; PMS-moxifloxacin; Priva-moxifloxacin; Riva-moxifloxacin; Sandoz Moxifloxacin; Teva-moxifloxacin; Torrent-moxifloxacin; Vigamox

>  <SALTS>  (1) 
Moxifloxacin hydrochloride; Moxifloxacin hydrochloride monohydrate

>  <SECONDARY_ACCESSION_NUMBERS>  (1) 
APRD00281

>  <SMILES>  (1) 
[H][C@]12CN(C[C@@]1([H])NCCC2)C1=C(F)C=C2C(=O)C(=CN(C3CC3)C2=C1OC)C(O)=O

>  <SYNONYMS>  (1) 
1-Cyclopropyl-6-fluoro-1,4-dihydro-8-methoxy-7-((4as,7as)-octahydro-6H-pyrrolo(3,4-b)pyridin-6-yl)-4-oxo-3-quinolinecarboxylic acid

$$$$
