62859
     RDKit          2D

 57 54  0  0  1  0  0  0  0  0999 V2000
    8.5226    0.2063    0.0000 Ca  0  0  0  0  0  0  0  0  0  0  0  0
    4.9504   -1.0312    0.0000 O   0  0  0  0  0  0  0  0  0  0  0  0
    4.2361    1.0312    0.0000 O   0  0  0  0  0  0  0  0  0  0  0  0
   12.0947   -1.0312    0.0000 O   0  0  0  0  0  0  0  0  0  0  0  0
   12.8091    1.0312    0.0000 O   0  0  0  0  0  0  0  0  0  0  0  0
    5.6650    1.0312    0.0000 O   0  0  0  0  0  0  0  0  0  0  0  0
   11.3804    1.0312    0.0000 O   0  0  0  0  0  0  0  0  0  0  0  0
    3.5217   -1.0312    0.0000 O   0  0  0  0  0  0  0  0  0  0  0  0
   13.5236   -1.0312    0.0000 O   0  0  0  0  0  0  0  0  0  0  0  0
    6.3793   -1.0312    0.0000 O   0  0  0  0  0  0  0  0  0  0  0  0
   10.6658   -1.0312    0.0000 O   0  0  0  0  0  0  0  0  0  0  0  0
    2.0928   -0.2063    0.0000 O   0  0  0  0  0  0  0  0  0  0  0  0
   14.9524   -0.2063    0.0000 O   0  0  0  0  0  0  0  0  0  0  0  0
    7.8082   -0.2063    0.0000 O   0  0  0  0  0  0  0  0  0  0  0  0
    7.0938    1.0312    0.0000 O   0  0  0  0  0  0  0  0  0  0  0  0
    9.2371   -0.2063    0.0000 O   0  0  0  0  0  0  0  0  0  0  0  0
    9.9515    1.0312    0.0000 O   0  0  0  0  0  0  0  0  0  0  0  0
    4.9504   -0.2063    0.0000 C   0  0  0  0  0  0  0  0  0  0  0  0
    4.2361    0.2063    0.0000 C   0  0  0  0  0  0  0  0  0  0  0  0
   12.0947   -0.2063    0.0000 C   0  0  0  0  0  0  0  0  0  0  0  0
   12.8091    0.2063    0.0000 C   0  0  0  0  0  0  0  0  0  0  0  0
    5.6650    0.2063    0.0000 C   0  0  0  0  0  0  0  0  0  0  0  0
   11.3804    0.2063    0.0000 C   0  0  0  0  0  0  0  0  0  0  0  0
    3.5217   -0.2063    0.0000 C   0  0  0  0  0  0  0  0  0  0  0  0
   13.5236   -0.2063    0.0000 C   0  0  0  0  0  0  0  0  0  0  0  0
    6.3793   -0.2063    0.0000 C   0  0  0  0  0  0  0  0  0  0  0  0
   10.6658   -0.2063    0.0000 C   0  0  0  0  0  0  0  0  0  0  0  0
    2.8072    0.2063    0.0000 C   0  0  0  0  0  0  0  0  0  0  0  0
   14.2380    0.2063    0.0000 C   0  0  0  0  0  0  0  0  0  0  0  0
    7.0938    0.2063    0.0000 C   0  0  0  0  0  0  0  0  0  0  0  0
    9.9515    0.2063    0.0000 C   0  0  0  0  0  0  0  0  0  0  0  0
    0.0000    0.0000    0.0000 H   0  0  0  0  0  0  0  0  0  0  0  0
    0.0000    0.0000    0.0000 H   0  0  0  0  0  0  0  0  0  0  0  0
    0.0000    0.0000    0.0000 H   0  0  0  0  0  0  0  0  0  0  0  0
    0.0000    0.0000    0.0000 H   0  0  0  0  0  0  0  0  0  0  0  0
    0.0000    0.0000    0.0000 H   0  0  0  0  0  0  0  0  0  0  0  0
    0.0000    0.0000    0.0000 H   0  0  0  0  0  0  0  0  0  0  0  0
    0.0000    0.0000    0.0000 H   0  0  0  0  0  0  0  0  0  0  0  0
    0.0000    0.0000    0.0000 H   0  0  0  0  0  0  0  0  0  0  0  0
    0.0000    0.0000    0.0000 H   0  0  0  0  0  0  0  0  0  0  0  0
    0.0000    0.0000    0.0000 H   0  0  0  0  0  0  0  0  0  0  0  0
    0.0000    0.0000    0.0000 H   0  0  0  0  0  0  0  0  0  0  0  0
    0.0000    0.0000    0.0000 H   0  0  0  0  0  0  0  0  0  0  0  0
    0.0000    0.0000    0.0000 H   0  0  0  0  0  0  0  0  0  0  0  0
    0.0000    0.0000    0.0000 H   0  0  0  0  0  0  0  0  0  0  0  0
    0.0000    0.0000    0.0000 H   0  0  0  0  0  0  0  0  0  0  0  0
    0.0000    0.0000    0.0000 H   0  0  0  0  0  0  0  0  0  0  0  0
    0.0000    0.0000    0.0000 H   0  0  0  0  0  0  0  0  0  0  0  0
    0.0000    0.0000    0.0000 H   0  0  0  0  0  0  0  0  0  0  0  0
    0.0000    0.0000    0.0000 H   0  0  0  0  0  0  0  0  0  0  0  0
    0.0000    0.0000    0.0000 H   0  0  0  0  0  0  0  0  0  0  0  0
    0.0000    0.0000    0.0000 H   0  0  0  0  0  0  0  0  0  0  0  0
    0.0000    0.0000    0.0000 H   0  0  0  0  0  0  0  0  0  0  0  0
    0.0000    0.0000    0.0000 H   0  0  0  0  0  0  0  0  0  0  0  0
    0.0000    0.0000    0.0000 H   0  0  0  0  0  0  0  0  0  0  0  0
    0.0000    0.0000    0.0000 H   0  0  0  0  0  0  0  0  0  0  0  0
    0.0000    0.0000    0.0000 H   0  0  0  0  0  0  0  0  0  0  0  0
 18  2  1  1
 19  3  1  1
 20  4  1  6
 21  5  1  6
 22  6  1  1
 23  7  1  6
 24  8  1  6
 25  9  1  1
 10 26  1  0
 11 27  1  0
 12 28  1  0
 13 29  1  0
 14 30  1  0
 15 30  2  0
 16 31  1  0
 17 31  2  0
 18 19  1  0
 18 22  1  0
 19 24  1  0
 20 21  1  0
 20 23  1  0
 21 25  1  0
 22 26  1  0
 23 27  1  0
 24 28  1  0
 25 29  1  0
 26 30  1  0
 27 31  1  0
  2 32  1  0
  3 33  1  0
  4 34  1  0
  5 35  1  0
  6 36  1  0
  7 37  1  0
  8 38  1  0
  9 39  1  0
 10 40  1  0
 11 41  1  0
 12 42  1  0
 13 43  1  0
 18 44  1  0
 19 45  1  0
 20 46  1  0
 21 47  1  0
 22 48  1  0
 23 49  1  0
 24 50  1  0
 25 51  1  0
 26 52  1  0
 27 53  1  0
 28 54  1  0
 28 55  1  0
 29 56  1  0
 29 57  1  0
M  CHG  3   1   2  14  -1  16  -1
M  END
>  <ALOGPS_LOGP>  (1) 
-1.91

>  <ALOGPS_LOGS>  (1) 
-1.09

>  <ALOGPS_SOLUBILITY>  (1) 
3.98e+01 g/l

>  <DATABASE_ID>  (1) 
DB00326

>  <DATABASE_NAME>  (1) 
drugbank

>  <DRUGBANK_ID>  (1) 
DB00326

>  <DRUG_GROUPS>  (1) 
approved

>  <EXACT_MASS>  (1) 
490.084675939

>  <FORMULA>  (1) 
C14H26CaO16

>  <GENERIC_NAME>  (1) 
Calcium Gluceptate

>  <INCHI_IDENTIFIER>  (1) 
InChI=1S/2C7H14O8.Ca/c2*8-1-2(9)3(10)4(11)5(12)6(13)7(14)15;/h2*2-6,8-13H,1H2,(H,14,15);/q;;+2/p-2/t2*2-,3-,4+,5-,6?;/m11./s1

>  <INCHI_KEY>  (1) 
FATUQANACHZLRT-KMRXSBRUSA-L

>  <JCHEM_ACCEPTOR_COUNT>  (1) 
8

>  <JCHEM_AVERAGE_POLARIZABILITY>  (1) 
19.349000075626734

>  <JCHEM_BIOAVAILABILITY>  (1) 
0

>  <JCHEM_DONOR_COUNT>  (1) 
6

>  <JCHEM_FORMAL_CHARGE>  (1) 
0

>  <JCHEM_GHOSE_FILTER>  (1) 
0

>  <JCHEM_IUPAC>  (1) 
calcium bis((3R,4S,5R,6R)-2,3,4,5,6,7-hexahydroxyheptanoate)

>  <JCHEM_LOGP>  (1) 
-4.040079252666667

>  <JCHEM_MDDR_LIKE_RULE>  (1) 
0

>  <JCHEM_NUMBER_OF_RINGS>  (1) 
0

>  <JCHEM_PHYSIOLOGICAL_CHARGE>  (1) 
-1

>  <JCHEM_PKA>  (1) 
12.467210588266337

>  <JCHEM_PKA_STRONGEST_ACIDIC>  (1) 
3.384685145485425

>  <JCHEM_PKA_STRONGEST_BASIC>  (1) 
-2.9742118640167448

>  <JCHEM_POLAR_SURFACE_AREA>  (1) 
161.51

>  <JCHEM_REFRACTIVITY>  (1) 
55.070600000000006

>  <JCHEM_ROTATABLE_BOND_COUNT>  (1) 
12

>  <JCHEM_RULE_OF_FIVE>  (1) 
0

>  <JCHEM_TRADITIONAL_IUPAC>  (1) 
calcium bis((2xi)-D-gluco-heptonate)

>  <JCHEM_VEBER_RULE>  (1) 
0

>  <MOLECULAR_WEIGHT>  (1) 
490.425

>  <PRODUCTS>  (1) 
Calcium Liq Alsi; Calcium Liquid; Glucoheptonate; Liquid Calcium; Sirop De Calcium 625mg/5ml

>  <SECONDARY_ACCESSION_NUMBERS>  (1) 
APRD00841

>  <SMILES>  (1) 
[Ca++].OC[C@@H](O)[C@@H](O)[C@H](O)[C@@H](O)C(O)C([O-])=O.OC[C@@H](O)[C@@H](O)[C@H](O)[C@@H](O)C(O)C([O-])=O

>  <SYNONYMS>  (1) 
Calcii Glucoheptonas; Calcii glugoheptonas; Calcium Gluceptate; Calcium glucoheptonat; Glucoheptonate de calcium

$$$$
