246
     RDKit          2D

 49 53  0  0  0  0  0  0  0  0999 V2000
    5.8073    3.0921    0.0000 Cl  0  0  0  0  0  0  0  0  0  0  0  0
    1.6500   -1.3068    0.0000 S   0  0  0  0  0  0  0  0  0  0  0  0
   10.0379    2.2671    0.0000 O   0  0  0  0  0  0  0  0  0  0  0  0
    5.0928    0.2045    0.0000 N   0  0  0  0  0  0  0  0  0  0  0  0
    3.6638   -0.6205    0.0000 N   0  0  0  0  0  0  0  0  0  0  0  0
    2.2004   -0.6988    0.0000 N   0  0  0  0  0  0  0  0  0  0  0  0
    8.7314    2.9310    0.0000 N   0  0  0  0  0  0  0  0  0  0  0  0
    5.0928   -0.6205    0.0000 C   0  0  0  0  0  0  0  0  0  0  0  0
    4.3783    0.6170    0.0000 C   0  0  0  0  0  0  0  0  0  0  0  0
    4.3783   -1.0330    0.0000 C   0  0  0  0  0  0  0  0  0  0  0  0
    3.6638    0.2045    0.0000 C   0  0  0  0  0  0  0  0  0  0  0  0
    5.8073    0.6170    0.0000 C   0  0  0  0  0  0  0  0  0  0  0  0
    5.8073    1.4420    0.0000 C   0  0  0  0  0  0  0  0  0  0  0  0
    2.9494   -1.0330    0.0000 C   0  0  0  0  0  0  0  0  0  0  0  0
    6.5218    1.8546    0.0000 C   0  0  0  0  0  0  0  0  0  0  0  0
    2.8643   -1.8488    0.0000 C   0  0  0  0  0  0  0  0  0  0  0  0
    7.9507    1.8546    0.0000 C   0  0  0  0  0  0  0  0  0  0  0  0
    7.2362    1.4420    0.0000 C   0  0  0  0  0  0  0  0  0  0  0  0
    7.9507    2.6796    0.0000 C   0  0  0  0  0  0  0  0  0  0  0  0
    6.5218    2.6796    0.0000 C   0  0  0  0  0  0  0  0  0  0  0  0
    8.7314    1.6031    0.0000 C   0  0  0  0  0  0  0  0  0  0  0  0
    2.0570   -2.0189    0.0000 C   0  0  0  0  0  0  0  0  0  0  0  0
    7.2362    3.0921    0.0000 C   0  0  0  0  0  0  0  0  0  0  0  0
    9.2129    2.2671    0.0000 C   0  0  0  0  0  0  0  0  0  0  0  0
    3.4153   -2.4628    0.0000 C   0  0  0  0  0  0  0  0  0  0  0  0
    1.8007   -2.8031    0.0000 C   0  0  0  0  0  0  0  0  0  0  0  0
    3.1590   -3.2470    0.0000 C   0  0  0  0  0  0  0  0  0  0  0  0
    2.3517   -3.4171    0.0000 C   0  0  0  0  0  0  0  0  0  0  0  0
    0.0000    0.0000    0.0000 H   0  0  0  0  0  0  0  0  0  0  0  0
    0.0000    0.0000    0.0000 H   0  0  0  0  0  0  0  0  0  0  0  0
    0.0000    0.0000    0.0000 H   0  0  0  0  0  0  0  0  0  0  0  0
    0.0000    0.0000    0.0000 H   0  0  0  0  0  0  0  0  0  0  0  0
    0.0000    0.0000    0.0000 H   0  0  0  0  0  0  0  0  0  0  0  0
    0.0000    0.0000    0.0000 H   0  0  0  0  0  0  0  0  0  0  0  0
    0.0000    0.0000    0.0000 H   0  0  0  0  0  0  0  0  0  0  0  0
    0.0000    0.0000    0.0000 H   0  0  0  0  0  0  0  0  0  0  0  0
    0.0000    0.0000    0.0000 H   0  0  0  0  0  0  0  0  0  0  0  0
    0.0000    0.0000    0.0000 H   0  0  0  0  0  0  0  0  0  0  0  0
    0.0000    0.0000    0.0000 H   0  0  0  0  0  0  0  0  0  0  0  0
    0.0000    0.0000    0.0000 H   0  0  0  0  0  0  0  0  0  0  0  0
    0.0000    0.0000    0.0000 H   0  0  0  0  0  0  0  0  0  0  0  0
    0.0000    0.0000    0.0000 H   0  0  0  0  0  0  0  0  0  0  0  0
    0.0000    0.0000    0.0000 H   0  0  0  0  0  0  0  0  0  0  0  0
    0.0000    0.0000    0.0000 H   0  0  0  0  0  0  0  0  0  0  0  0
    0.0000    0.0000    0.0000 H   0  0  0  0  0  0  0  0  0  0  0  0
    0.0000    0.0000    0.0000 H   0  0  0  0  0  0  0  0  0  0  0  0
    0.0000    0.0000    0.0000 H   0  0  0  0  0  0  0  0  0  0  0  0
    0.0000    0.0000    0.0000 H   0  0  0  0  0  0  0  0  0  0  0  0
    0.0000    0.0000    0.0000 H   0  0  0  0  0  0  0  0  0  0  0  0
  1 20  1  0
  2  6  1  0
  2 22  1  0
  3 24  2  0
  4  8  1  0
  4  9  1  0
  4 12  1  0
  5 10  1  0
  5 11  1  0
  5 14  1  0
  6 14  2  0
  7 19  1  0
  7 24  1  0
  8 10  1  0
  9 11  1  0
 12 13  1  0
 13 15  1  0
 14 16  1  0
 15 18  2  0
 15 20  1  0
 16 22  2  0
 16 25  1  0
 17 18  1  0
 17 19  2  0
 17 21  1  0
 19 23  1  0
 20 23  2  0
 21 24  1  0
 22 26  1  0
 25 27  2  0
 26 28  2  0
 27 28  1  0
  7 29  1  0
  8 30  1  0
  8 31  1  0
  9 32  1  0
  9 33  1  0
 10 34  1  0
 10 35  1  0
 11 36  1  0
 11 37  1  0
 12 38  1  0
 12 39  1  0
 13 40  1  0
 13 41  1  0
 18 42  1  0
 21 43  1  0
 21 44  1  0
 23 45  1  0
 25 46  1  0
 26 47  1  0
 27 48  1  0
 28 49  1  0
M  END
>  <ALOGPS_LOGP>  (1) 
4.64

>  <ALOGPS_LOGS>  (1) 
-4.76

>  <ALOGPS_SOLUBILITY>  (1) 
7.18e-03 g/l

>  <DATABASE_ID>  (1) 
DB00246

>  <DATABASE_NAME>  (1) 
drugbank

>  <DRUGBANK_ID>  (1) 
DB00246

>  <DRUG_GROUPS>  (1) 
approved

>  <EXACT_MASS>  (1) 
412.112459711

>  <FORMULA>  (1) 
C21H21ClN4OS

>  <GENERIC_NAME>  (1) 
Ziprasidone

>  <INCHI_IDENTIFIER>  (1) 
InChI=1S/C21H21ClN4OS/c22-17-13-18-15(12-20(27)23-18)11-14(17)5-6-25-7-9-26(10-8-25)21-16-3-1-2-4-19(16)28-24-21/h1-4,11,13H,5-10,12H2,(H,23,27)

>  <INCHI_KEY>  (1) 
MVWVFYHBGMAFLY-UHFFFAOYSA-N

>  <JCHEM_ACCEPTOR_COUNT>  (1) 
4

>  <JCHEM_AVERAGE_POLARIZABILITY>  (1) 
44.95709596112768

>  <JCHEM_BIOAVAILABILITY>  (1) 
1

>  <JCHEM_DONOR_COUNT>  (1) 
1

>  <JCHEM_FORMAL_CHARGE>  (1) 
0

>  <JCHEM_GHOSE_FILTER>  (1) 
1

>  <JCHEM_IUPAC>  (1) 
5-{2-[4-(1,2-benzothiazol-3-yl)piperazin-1-yl]ethyl}-6-chloro-2,3-dihydro-1H-indol-2-one

>  <JCHEM_LOGP>  (1) 
4.304046458666667

>  <JCHEM_MDDR_LIKE_RULE>  (1) 
0

>  <JCHEM_NUMBER_OF_RINGS>  (1) 
5

>  <JCHEM_PHYSIOLOGICAL_CHARGE>  (1) 
1

>  <JCHEM_PKA>  (1) 
14.886130352471191

>  <JCHEM_PKA_STRONGEST_ACIDIC>  (1) 
13.181677746261201

>  <JCHEM_PKA_STRONGEST_BASIC>  (1) 
7.0878561845648225

>  <JCHEM_POLAR_SURFACE_AREA>  (1) 
48.470000000000006

>  <JCHEM_REFRACTIVITY>  (1) 
116.72480000000002

>  <JCHEM_ROTATABLE_BOND_COUNT>  (1) 
4

>  <JCHEM_RULE_OF_FIVE>  (1) 
1

>  <JCHEM_TRADITIONAL_IUPAC>  (1) 
ziprasidone

>  <JCHEM_VEBER_RULE>  (1) 
0

>  <MOLECULAR_WEIGHT>  (1) 
412.936

>  <PRODUCTS>  (1) 
Gd-ziprasidone; Geodon; Zeldox; Ziprasidone; Ziprasidone Hydrochloride; Ziprasidone hydrochloride

>  <SALTS>  (1) 
Ziprasidone hydrochloride; Ziprasidone mesylate trihydrate

>  <SECONDARY_ACCESSION_NUMBERS>  (1) 
APRD00540

>  <SMILES>  (1) 
ClC1=C(CCN2CCN(CC2)C2=NSC3=CC=CC=C23)C=C2CC(=O)NC2=C1

$$$$
