
     RDKit          2D

 39 41  0  0  0  0  0  0  0  0999 V2000
   -1.4324   -1.2704    0.0000 C   0  0  0  0  0  0  0  0  0  0  0  0
   -1.4324   -2.0925    0.0000 C   0  0  0  0  0  0  0  0  0  0  0  0
   -2.1548   -0.8469    0.0000 C   0  0  0  0  0  0  0  0  0  0  0  0
   -2.1548   -2.4911    0.0000 C   0  0  0  0  0  0  0  0  0  0  0  0
   -2.8522   -1.2704    0.0000 C   0  0  0  0  0  0  0  0  0  0  0  0
   -2.8522   -2.0925    0.0000 C   0  0  0  0  0  0  0  0  0  0  0  0
   -3.5747   -2.4911    0.0000 Cl  0  0  0  0  0  0  0  0  0  0  0  0
   -2.1548   -0.0249    0.0000 Cl  0  0  0  0  0  0  0  0  0  0  0  0
   -0.7099   -0.8469    0.0000 C   0  0  0  0  0  0  0  0  0  0  0  0
   -0.0124   -1.2454    0.0000 O   0  0  0  0  0  0  0  0  0  0  0  0
    0.7099   -0.8469    0.0000 N   0  0  0  0  0  0  0  0  0  0  0  0
    0.7099   -0.0249    0.0000 C   0  0  0  0  0  0  0  0  0  0  0  0
    1.4324    0.3737    0.0000 C   0  0  0  0  0  0  0  0  0  0  0  0
    0.0124    0.3986    0.0000 C   0  0  0  0  0  0  0  0  0  0  0  0
    0.0124    1.2206    0.0000 N   0  0  0  0  0  0  0  0  0  0  0  0
   -0.6601    1.6940    0.0000 C   0  0  0  0  0  0  0  0  0  0  0  0
   -0.4110    2.4911    0.0000 N   0  0  0  0  0  0  0  0  0  0  0  0
    0.6601    1.6940    0.0000 C   0  0  0  0  0  0  0  0  0  0  0  0
    0.4110    2.4911    0.0000 C   0  0  0  0  0  0  0  0  0  0  0  0
    2.8522    1.2206    0.0000 C   0  0  0  0  0  0  0  0  0  0  0  0
    2.8522    0.3737    0.0000 C   0  0  0  0  0  0  0  0  0  0  0  0
    2.1548    1.6191    0.0000 C   0  0  0  0  0  0  0  0  0  0  0  0
    2.1548   -0.0249    0.0000 C   0  0  0  0  0  0  0  0  0  0  0  0
    1.4324    1.2206    0.0000 C   0  0  0  0  0  0  0  0  0  0  0  0
    3.5747    1.6191    0.0000 Cl  0  0  0  0  0  0  0  0  0  0  0  0
    2.1548   -0.8469    0.0000 Cl  0  0  0  0  0  0  0  0  0  0  0  0
    0.0000    0.0000    0.0000 H   0  0  0  0  0  0  0  0  0  0  0  0
    0.0000    0.0000    0.0000 H   0  0  0  0  0  0  0  0  0  0  0  0
    0.0000    0.0000    0.0000 H   0  0  0  0  0  0  0  0  0  0  0  0
    0.0000    0.0000    0.0000 H   0  0  0  0  0  0  0  0  0  0  0  0
    0.0000    0.0000    0.0000 H   0  0  0  0  0  0  0  0  0  0  0  0
    0.0000    0.0000    0.0000 H   0  0  0  0  0  0  0  0  0  0  0  0
    0.0000    0.0000    0.0000 H   0  0  0  0  0  0  0  0  0  0  0  0
    0.0000    0.0000    0.0000 H   0  0  0  0  0  0  0  0  0  0  0  0
    0.0000    0.0000    0.0000 H   0  0  0  0  0  0  0  0  0  0  0  0
    0.0000    0.0000    0.0000 H   0  0  0  0  0  0  0  0  0  0  0  0
    0.0000    0.0000    0.0000 H   0  0  0  0  0  0  0  0  0  0  0  0
    0.0000    0.0000    0.0000 H   0  0  0  0  0  0  0  0  0  0  0  0
    0.0000    0.0000    0.0000 H   0  0  0  0  0  0  0  0  0  0  0  0
  2  1  2  0
  3  1  1  0
  9  1  1  0
  4  2  1  0
  5  3  2  0
  8  3  1  0
  6  4  2  0
  6  5  1  0
  7  6  1  0
 10  9  1  0
 11 10  1  0
 12 11  2  0
 13 12  1  0
 14 12  1  0
 23 13  2  0
 24 13  1  0
 15 14  1  0
 16 15  1  0
 18 15  1  0
 17 16  2  0
 19 17  1  0
 19 18  2  0
 21 20  2  0
 22 20  1  0
 25 20  1  0
 23 21  1  0
 24 22  2  0
 26 23  1  0
  2 27  1  0
  4 28  1  0
  5 29  1  0
  9 30  1  0
  9 31  1  0
 14 32  1  0
 14 33  1  0
 16 34  1  0
 18 35  1  0
 19 36  1  0
 21 37  1  0
 22 38  1  0
 24 39  1  0
M  END
>  <ALOGPS_LOGP>  (1) 
5.28

>  <ALOGPS_LOGS>  (1) 
-5.35

>  <ALOGPS_SOLUBILITY>  (1) 
1.91e-03 g/l

>  <DATABASE_ID>  (1) 
DB00239

>  <DATABASE_NAME>  (1) 
drugbank

>  <DRUGBANK_ID>  (1) 
DB00239

>  <DRUG_GROUPS>  (1) 
approved

>  <EXACT_MASS>  (1) 
426.9812729

>  <FORMULA>  (1) 
C18H13Cl4N3O

>  <GENERIC_NAME>  (1) 
Oxiconazole

>  <INCHI_IDENTIFIER>  (1) 
InChI=1S/C18H13Cl4N3O/c19-13-2-1-12(16(21)7-13)10-26-24-18(9-25-6-5-23-11-25)15-4-3-14(20)8-17(15)22/h1-8,11H,9-10H2/b24-18+

>  <INCHI_KEY>  (1) 
QRJJEGAJXVEBNE-HKOYGPOVSA-N

>  <JCHEM_ACCEPTOR_COUNT>  (1) 
3

>  <JCHEM_ATOM_COUNT>  (1) 
39

>  <JCHEM_AVERAGE_POLARIZABILITY>  (1) 
40.79437020696298

>  <JCHEM_BIOAVAILABILITY>  (1) 
1

>  <JCHEM_DONOR_COUNT>  (1) 
0

>  <JCHEM_FORMAL_CHARGE>  (1) 
0

>  <JCHEM_GHOSE_FILTER>  (1) 
0

>  <JCHEM_IUPAC>  (1) 
(Z)-[1-(2,4-dichlorophenyl)-2-(1H-imidazol-1-yl)ethylidene][(2,4-dichlorophenyl)methoxy]amine

>  <JCHEM_LOGP>  (1) 
5.838766547333333

>  <JCHEM_MDDR_LIKE_RULE>  (1) 
1

>  <JCHEM_NUMBER_OF_RINGS>  (1) 
3

>  <JCHEM_PHYSIOLOGICAL_CHARGE>  (1) 
1

>  <JCHEM_PKA_STRONGEST_BASIC>  (1) 
6.738241434816746

>  <JCHEM_POLAR_SURFACE_AREA>  (1) 
39.41

>  <JCHEM_REFRACTIVITY>  (1) 
105.94699999999999

>  <JCHEM_ROTATABLE_BOND_COUNT>  (1) 
6

>  <JCHEM_RULE_OF_FIVE>  (1) 
0

>  <JCHEM_TRADITIONAL_IUPAC>  (1) 
salongo

>  <JCHEM_VEBER_RULE>  (1) 
1

>  <MOLECULAR_WEIGHT>  (1) 
429.12

>  <PRODUCTS>  (1) 
Oxiconazole Nitrate; Oxiconazole Nitrate Cream 1%; Oxistat; Oxizole

>  <SALTS>  (1) 
Oxiconazole nitrate

>  <SECONDARY_ACCESSION_NUMBERS>  (1) 
APRD01154

>  <SMILES>  (1) 
ClC1=CC(Cl)=C(CO\N=C(/CN2C=CN=C2)C2=CC=C(Cl)C=C2Cl)C=C1

>  <SYNONYMS>  (1) 
Oxiconazol; Oxiconazole; Oxiconazolum

$$$$
