
     RDKit          2D

181192  0  0  1  0  0  0  0  0999 V2000
    3.1464   -1.5849    0.0000 C   0  0  0  0  0  0  0  0  0  0  0  0
    3.3491   -0.7163    0.0000 C   0  0  0  0  0  0  0  0  0  0  0  0
    2.6395   -0.9340    0.0000 C   0  0  0  0  0  0  0  0  0  0  0  0
    1.8223   -1.0476    0.0000 N   0  0  0  0  0  0  0  0  0  0  0  0
    1.3154   -0.3967    0.0000 C   0  0  0  0  0  0  0  0  0  0  0  0
    1.6451    0.4147    0.0000 O   0  0  0  0  0  0  0  0  0  0  0  0
    0.4982   -0.5103    0.0000 C   0  0  0  0  0  0  0  0  0  0  0  0
   -0.0087    0.1406    0.0000 C   0  0  0  0  0  0  0  0  0  0  0  0
   -0.8258    0.0271    0.0000 C   0  0  0  0  0  0  0  0  0  0  0  0
   -0.4979    0.8556    0.0000 C   0  0  0  0  0  0  0  0  0  0  0  0
   -1.3980    0.6214    0.0000 C   0  0  0  0  0  0  0  0  0  0  0  0
   -1.2051    1.4712    0.0000 C   0  0  0  0  0  0  0  0  0  0  0  0
   -1.5256    2.2702    0.0000 C   0  0  0  0  0  0  0  0  0  0  0  0
   -2.3422    2.3871    0.0000 N   0  0  0  0  0  0  0  0  0  0  0  0
   -1.0160    2.9190    0.0000 O   0  0  0  0  0  0  0  0  0  0  0  0
   -2.1401    0.2609    0.0000 C   0  0  0  0  0  0  0  0  0  0  0  0
   -2.0265   -0.5563    0.0000 N   0  0  0  0  0  0  0  0  0  0  0  0
   -1.2143   -0.7008    0.0000 C   0  0  0  0  0  0  0  0  0  0  0  0
   -0.9071   -1.7190    0.0000 C   0  0  0  0  0  0  0  0  0  0  0  0
   -0.0224   -1.7831    0.0000 C   0  0  0  0  0  0  0  0  0  0  0  0
   -1.1357   -2.5117    0.0000 C   0  0  0  0  0  0  0  0  0  0  0  0
   -1.9603   -2.5392    0.0000 N   0  0  0  0  0  0  0  0  0  0  0  0
   -2.1889   -3.3319    0.0000 C   0  0  0  0  0  0  0  0  0  0  0  0
   -3.2336   -3.5309    0.0000 C   0  0  0  0  0  0  0  0  0  0  0  0
   -3.9981   -3.2207    0.0000 C   0  0  0  0  0  0  0  0  0  0  0  0
   -3.9393   -2.3978    0.0000 N   0  0  0  0  0  0  0  0  0  0  0  0
   -4.7037   -2.0876    0.0000 C   0  0  0  0  0  0  0  0  0  0  0  0
   -4.7924   -1.0278    0.0000 C   0  0  0  0  0  0  0  0  0  0  0  0
   -5.6080   -0.7900    0.0000 C   0  0  0  0  0  0  0  0  0  0  0  0
   -4.4040   -0.2999    0.0000 C   0  0  0  0  0  0  0  0  0  0  0  0
   -3.5918   -0.4444    0.0000 N   0  0  0  0  0  0  0  0  0  0  0  0
   -3.2033    0.2834    0.0000 C   0  0  0  0  0  0  0  0  0  0  0  0
   -2.6312    0.9310    0.0000 C   0  0  0  0  0  0  0  0  0  0  0  0
   -3.7755    0.8777    0.0000 C   0  0  0  0  0  0  0  0  0  0  0  0
   -3.4115    1.6615    0.0000 C   0  0  0  0  0  0  0  0  0  0  0  0
   -4.0574    1.7165    0.0000 C   0  0  0  0  0  0  0  0  0  0  0  0
   -3.8886    2.5712    0.0000 C   0  0  0  0  0  0  0  0  0  0  0  0
   -4.5096    3.1143    0.0000 N   0  0  0  0  0  0  0  0  0  0  0  0
   -3.1078    2.8375    0.0000 O   0  0  0  0  0  0  0  0  0  0  0  0
   -4.5176    0.5172    0.0000 C   0  0  0  0  0  0  0  0  0  0  0  0
   -5.3431    0.9400    0.0000 C   0  0  0  0  0  0  0  0  0  0  0  0
   -6.0698    0.4846    0.0000 C   0  0  0  0  0  0  0  0  0  0  0  0
   -6.7988    0.8709    0.0000 C   0  0  0  0  0  0  0  0  0  0  0  0
   -6.8287    1.6954    0.0000 N   0  0  0  0  0  0  0  0  0  0  0  0
   -7.4978    0.4328    0.0000 O   0  0  0  0  0  0  0  0  0  0  0  0
   -0.5439   -2.0644    0.0000 Co  0  0  0  0  0  0  0  0  0  0  0  0
   -0.1983   -2.9331    0.0000 C   0  0  0  0  0  0  0  0  0  0  0  0
   -0.4789   -3.8215    0.0000 N   0  0  0  0  0  0  0  0  0  0  0  0
    8.7983   -4.3844    0.0000 N   0  0  0  0  0  0  0  0  0  0  0  0
    7.9737   -4.4119    0.0000 C   0  0  0  0  0  0  0  0  0  0  0  0
    7.6928   -3.6362    0.0000 N   0  0  0  0  0  0  0  0  0  0  0  0
    6.9001   -3.4076    0.0000 C   0  0  0  0  0  0  0  0  0  0  0  0
    6.2492   -3.9146    0.0000 O   0  0  0  0  0  0  0  0  0  0  0  0
    5.5659   -3.4522    0.0000 C   0  0  0  0  0  0  0  0  0  0  0  0
    4.7473   -3.7435    0.0000 C   0  0  0  0  0  0  0  0  0  0  0  0
    4.6125   -4.6111    0.0000 O   0  0  0  0  0  0  0  0  0  0  0  0
    5.7945   -2.6595    0.0000 C   0  0  0  0  0  0  0  0  0  0  0  0
    5.2876   -2.0086    0.0000 O   0  0  0  0  0  0  0  0  0  0  0  0
    4.4705   -2.1222    0.0000 P   0  0  0  0  0  0  0  0  0  0  0  0
    5.0120   -1.5589    0.0000 O   0  0  0  0  0  0  0  0  0  0  0  0
    4.8580   -1.2187    0.0000 O   0  0  0  0  0  0  0  0  0  0  0  0
    3.9635   -1.4713    0.0000 O   0  0  0  0  0  0  0  0  0  0  0  0
    6.6191   -2.6319    0.0000 C   0  0  0  0  0  0  0  0  0  0  0  0
    6.9507   -1.7675    0.0000 O   0  0  0  0  0  0  0  0  0  0  0  0
    8.3436   -3.1293    0.0000 C   0  0  0  0  0  0  0  0  0  0  0  0
    8.4024   -2.3064    0.0000 C   0  0  0  0  0  0  0  0  0  0  0  0
    9.1445   -1.9459    0.0000 C   0  0  0  0  0  0  0  0  0  0  0  0
    9.2124   -1.0456    0.0000 C   0  0  0  0  0  0  0  0  0  0  0  0
    9.8277   -2.4082    0.0000 C   0  0  0  0  0  0  0  0  0  0  0  0
   10.6477   -2.0382    0.0000 C   0  0  0  0  0  0  0  0  0  0  0  0
    9.7689   -3.2311    0.0000 C   0  0  0  0  0  0  0  0  0  0  0  0
    9.0269   -3.5917    0.0000 C   0  0  0  0  0  0  0  0  0  0  0  0
   -5.2350   -2.7188    0.0000 C   0  0  0  0  0  0  0  0  0  0  0  0
   -5.9040   -2.2018    0.0000 C   0  0  0  0  0  0  0  0  0  0  0  0
   -6.0899   -3.0121    0.0000 C   0  0  0  0  0  0  0  0  0  0  0  0
   -6.9329   -2.8749    0.0000 C   0  0  0  0  0  0  0  0  0  0  0  0
   -7.4549   -3.5138    0.0000 N   0  0  0  0  0  0  0  0  0  0  0  0
   -7.2253   -2.1034    0.0000 O   0  0  0  0  0  0  0  0  0  0  0  0
   -4.7989   -3.4191    0.0000 C   0  0  0  0  0  0  0  0  0  0  0  0
   -5.1330   -4.3176    0.0000 C   0  0  0  0  0  0  0  0  0  0  0  0
   -4.5464   -4.9548    0.0000 C   0  0  0  0  0  0  0  0  0  0  0  0
   -4.7928   -5.7422    0.0000 C   0  0  0  0  0  0  0  0  0  0  0  0
   -4.2341   -6.3492    0.0000 N   0  0  0  0  0  0  0  0  0  0  0  0
   -5.5978   -5.9226    0.0000 O   0  0  0  0  0  0  0  0  0  0  0  0
   -1.5056   -3.7943    0.0000 C   0  0  0  0  0  0  0  0  0  0  0  0
   -1.1456   -4.5800    0.0000 C   0  0  0  0  0  0  0  0  0  0  0  0
   -2.0561   -4.4907    0.0000 C   0  0  0  0  0  0  0  0  0  0  0  0
   -0.8548   -3.2873    0.0000 C   0  0  0  0  0  0  0  0  0  0  0  0
    0.1570   -3.5312    0.0000 C   0  0  0  0  0  0  0  0  0  0  0  0
    0.4187   -4.4062    0.0000 C   0  0  0  0  0  0  0  0  0  0  0  0
    1.2215   -4.5966    0.0000 C   0  0  0  0  0  0  0  0  0  0  0  0
    1.7877   -3.9966    0.0000 N   0  0  0  0  0  0  0  0  0  0  0  0
    1.4579   -5.3870    0.0000 O   0  0  0  0  0  0  0  0  0  0  0  0
    0.0000    0.0000    0.0000 H   0  0  0  0  0  0  0  0  0  0  0  0
    0.0000    0.0000    0.0000 H   0  0  0  0  0  0  0  0  0  0  0  0
    0.0000    0.0000    0.0000 H   0  0  0  0  0  0  0  0  0  0  0  0
    0.0000    0.0000    0.0000 H   0  0  0  0  0  0  0  0  0  0  0  0
    0.0000    0.0000    0.0000 H   0  0  0  0  0  0  0  0  0  0  0  0
    0.0000    0.0000    0.0000 H   0  0  0  0  0  0  0  0  0  0  0  0
    0.0000    0.0000    0.0000 H   0  0  0  0  0  0  0  0  0  0  0  0
    0.0000    0.0000    0.0000 H   0  0  0  0  0  0  0  0  0  0  0  0
    0.0000    0.0000    0.0000 H   0  0  0  0  0  0  0  0  0  0  0  0
    0.0000    0.0000    0.0000 H   0  0  0  0  0  0  0  0  0  0  0  0
    0.0000    0.0000    0.0000 H   0  0  0  0  0  0  0  0  0  0  0  0
    0.0000    0.0000    0.0000 H   0  0  0  0  0  0  0  0  0  0  0  0
    0.0000    0.0000    0.0000 H   0  0  0  0  0  0  0  0  0  0  0  0
    0.0000    0.0000    0.0000 H   0  0  0  0  0  0  0  0  0  0  0  0
    0.0000    0.0000    0.0000 H   0  0  0  0  0  0  0  0  0  0  0  0
    0.0000    0.0000    0.0000 H   0  0  0  0  0  0  0  0  0  0  0  0
    0.0000    0.0000    0.0000 H   0  0  0  0  0  0  0  0  0  0  0  0
    0.0000    0.0000    0.0000 H   0  0  0  0  0  0  0  0  0  0  0  0
    0.0000    0.0000    0.0000 H   0  0  0  0  0  0  0  0  0  0  0  0
    0.0000    0.0000    0.0000 H   0  0  0  0  0  0  0  0  0  0  0  0
    0.0000    0.0000    0.0000 H   0  0  0  0  0  0  0  0  0  0  0  0
    0.0000    0.0000    0.0000 H   0  0  0  0  0  0  0  0  0  0  0  0
    0.0000    0.0000    0.0000 H   0  0  0  0  0  0  0  0  0  0  0  0
    0.0000    0.0000    0.0000 H   0  0  0  0  0  0  0  0  0  0  0  0
    0.0000    0.0000    0.0000 H   0  0  0  0  0  0  0  0  0  0  0  0
    0.0000    0.0000    0.0000 H   0  0  0  0  0  0  0  0  0  0  0  0
    0.0000    0.0000    0.0000 H   0  0  0  0  0  0  0  0  0  0  0  0
    0.0000    0.0000    0.0000 H   0  0  0  0  0  0  0  0  0  0  0  0
    0.0000    0.0000    0.0000 H   0  0  0  0  0  0  0  0  0  0  0  0
    0.0000    0.0000    0.0000 H   0  0  0  0  0  0  0  0  0  0  0  0
    0.0000    0.0000    0.0000 H   0  0  0  0  0  0  0  0  0  0  0  0
    0.0000    0.0000    0.0000 H   0  0  0  0  0  0  0  0  0  0  0  0
    0.0000    0.0000    0.0000 H   0  0  0  0  0  0  0  0  0  0  0  0
    0.0000    0.0000    0.0000 H   0  0  0  0  0  0  0  0  0  0  0  0
    0.0000    0.0000    0.0000 H   0  0  0  0  0  0  0  0  0  0  0  0
    0.0000    0.0000    0.0000 H   0  0  0  0  0  0  0  0  0  0  0  0
    0.0000    0.0000    0.0000 H   0  0  0  0  0  0  0  0  0  0  0  0
    0.0000    0.0000    0.0000 H   0  0  0  0  0  0  0  0  0  0  0  0
    0.0000    0.0000    0.0000 H   0  0  0  0  0  0  0  0  0  0  0  0
    0.0000    0.0000    0.0000 H   0  0  0  0  0  0  0  0  0  0  0  0
    0.0000    0.0000    0.0000 H   0  0  0  0  0  0  0  0  0  0  0  0
    0.0000    0.0000    0.0000 H   0  0  0  0  0  0  0  0  0  0  0  0
    0.0000    0.0000    0.0000 H   0  0  0  0  0  0  0  0  0  0  0  0
    0.0000    0.0000    0.0000 H   0  0  0  0  0  0  0  0  0  0  0  0
    0.0000    0.0000    0.0000 H   0  0  0  0  0  0  0  0  0  0  0  0
    0.0000    0.0000    0.0000 H   0  0  0  0  0  0  0  0  0  0  0  0
    0.0000    0.0000    0.0000 H   0  0  0  0  0  0  0  0  0  0  0  0
    0.0000    0.0000    0.0000 H   0  0  0  0  0  0  0  0  0  0  0  0
    0.0000    0.0000    0.0000 H   0  0  0  0  0  0  0  0  0  0  0  0
    0.0000    0.0000    0.0000 H   0  0  0  0  0  0  0  0  0  0  0  0
    0.0000    0.0000    0.0000 H   0  0  0  0  0  0  0  0  0  0  0  0
    0.0000    0.0000    0.0000 H   0  0  0  0  0  0  0  0  0  0  0  0
    0.0000    0.0000    0.0000 H   0  0  0  0  0  0  0  0  0  0  0  0
    0.0000    0.0000    0.0000 H   0  0  0  0  0  0  0  0  0  0  0  0
    0.0000    0.0000    0.0000 H   0  0  0  0  0  0  0  0  0  0  0  0
    0.0000    0.0000    0.0000 H   0  0  0  0  0  0  0  0  0  0  0  0
    0.0000    0.0000    0.0000 H   0  0  0  0  0  0  0  0  0  0  0  0
    0.0000    0.0000    0.0000 H   0  0  0  0  0  0  0  0  0  0  0  0
    0.0000    0.0000    0.0000 H   0  0  0  0  0  0  0  0  0  0  0  0
    0.0000    0.0000    0.0000 H   0  0  0  0  0  0  0  0  0  0  0  0
    0.0000    0.0000    0.0000 H   0  0  0  0  0  0  0  0  0  0  0  0
    0.0000    0.0000    0.0000 H   0  0  0  0  0  0  0  0  0  0  0  0
    0.0000    0.0000    0.0000 H   0  0  0  0  0  0  0  0  0  0  0  0
    0.0000    0.0000    0.0000 H   0  0  0  0  0  0  0  0  0  0  0  0
    0.0000    0.0000    0.0000 H   0  0  0  0  0  0  0  0  0  0  0  0
    0.0000    0.0000    0.0000 H   0  0  0  0  0  0  0  0  0  0  0  0
    0.0000    0.0000    0.0000 H   0  0  0  0  0  0  0  0  0  0  0  0
    0.0000    0.0000    0.0000 H   0  0  0  0  0  0  0  0  0  0  0  0
    0.0000    0.0000    0.0000 H   0  0  0  0  0  0  0  0  0  0  0  0
    0.0000    0.0000    0.0000 H   0  0  0  0  0  0  0  0  0  0  0  0
    0.0000    0.0000    0.0000 H   0  0  0  0  0  0  0  0  0  0  0  0
    0.0000    0.0000    0.0000 H   0  0  0  0  0  0  0  0  0  0  0  0
    0.0000    0.0000    0.0000 H   0  0  0  0  0  0  0  0  0  0  0  0
    0.0000    0.0000    0.0000 H   0  0  0  0  0  0  0  0  0  0  0  0
    0.0000    0.0000    0.0000 H   0  0  0  0  0  0  0  0  0  0  0  0
    0.0000    0.0000    0.0000 H   0  0  0  0  0  0  0  0  0  0  0  0
    0.0000    0.0000    0.0000 H   0  0  0  0  0  0  0  0  0  0  0  0
    0.0000    0.0000    0.0000 H   0  0  0  0  0  0  0  0  0  0  0  0
    0.0000    0.0000    0.0000 H   0  0  0  0  0  0  0  0  0  0  0  0
    0.0000    0.0000    0.0000 H   0  0  0  0  0  0  0  0  0  0  0  0
    0.0000    0.0000    0.0000 H   0  0  0  0  0  0  0  0  0  0  0  0
    0.0000    0.0000    0.0000 H   0  0  0  0  0  0  0  0  0  0  0  0
    0.0000    0.0000    0.0000 H   0  0  0  0  0  0  0  0  0  0  0  0
    0.0000    0.0000    0.0000 H   0  0  0  0  0  0  0  0  0  0  0  0
    0.0000    0.0000    0.0000 H   0  0  0  0  0  0  0  0  0  0  0  0
    0.0000    0.0000    0.0000 H   0  0  0  0  0  0  0  0  0  0  0  0
    0.0000    0.0000    0.0000 H   0  0  0  0  0  0  0  0  0  0  0  0
    0.0000    0.0000    0.0000 H   0  0  0  0  0  0  0  0  0  0  0  0
  1  2  1  6
  1  3  1  0
  3  4  1  0
  4  5  1  0
  5  6  2  0
  5  7  1  0
  7  8  1  0
  8  9  1  0
  9 10  1  6
  9 11  1  0
 11 12  1  6
 12 13  1  0
 13 14  1  0
 13 15  2  0
 11 16  1  0
 16 17  1  0
 17 18  1  0
  9 18  1  0
 18 19  2  0
 19 20  1  0
 19 21  1  0
 21 22  2  0
 22 23  1  0
 23 24  2  0
 24 25  1  0
 25 26  2  0
 26 27  1  0
 27 28  2  0
 28 29  1  0
 28 30  1  0
 30 31  2  0
 31 32  1  0
 16 32  1  0
 32 33  1  1
 32 34  1  0
 34 35  1  1
 34 36  1  0
 36 37  1  0
 37 38  1  0
 37 39  2  0
 34 40  1  0
 30 40  1  0
 40 41  1  6
 41 42  1  0
 42 43  1  0
 43 44  1  0
 43 45  2  0
 31 46  1  0
 17 46  1  0
 22 46  1  0
 26 46  1  0
 46 47  1  0
 47 48  3  0
 46 49  1  0
 49 50  2  0
 50 51  1  0
 52 51  1  0
 52 53  1  0
 53 54  1  0
 54 55  1  6
 55 56  1  0
 54 57  1  0
 57 58  1  0
 58 59  1  0
 59 60  1  0
 59 61  2  0
 59 62  1  0
  1 62  1  0
 57 63  1  0
 52 63  1  0
 63 64  1  1
 51 65  1  0
 65 66  2  0
 66 67  1  0
 67 68  1  0
 67 69  2  0
 69 70  1  0
 69 71  1  0
 71 72  2  0
 49 72  1  0
 65 72  1  0
 27 73  1  0
 73 74  1  1
 73 75  1  0
 75 76  1  0
 76 77  1  0
 76 78  2  0
 73 79  1  0
 25 79  1  0
 79 80  1  6
 80 81  1  0
 81 82  1  0
 82 83  1  0
 82 84  2  0
 23 85  1  0
 85 86  1  0
 85 87  1  0
 85 88  1  0
 21 88  1  0
 88 89  1  1
 89 90  1  0
 90 91  1  0
 91 92  1  0
 91 93  2  0
  1 94  1  0
  2 95  1  0
  2 96  1  0
  2 97  1  0
  3 98  1  0
  3 99  1  0
  4100  1  0
  7101  1  0
  7102  1  0
  8103  1  0
  8104  1  0
 10105  1  0
 10106  1  0
 10107  1  0
 11108  1  0
 12109  1  0
 12110  1  0
 14111  1  0
 14112  1  0
 16113  1  6
 20114  1  0
 20115  1  0
 20116  1  0
 24117  1  0
 29118  1  0
 29119  1  0
 29120  1  0
 33121  1  0
 33122  1  0
 33123  1  0
 35124  1  0
 35125  1  0
 35126  1  0
 36127  1  0
 36128  1  0
 38129  1  0
 38130  1  0
 40131  1  0
 41132  1  0
 41133  1  0
 42134  1  0
 42135  1  0
 44136  1  0
 44137  1  0
 50138  1  0
 52139  1  6
 54140  1  0
 55141  1  0
 55142  1  0
 56143  1  0
 57144  1  6
 63145  1  0
 64146  1  0
 66147  1  0
 68148  1  0
 68149  1  0
 68150  1  0
 70151  1  0
 70152  1  0
 70153  1  0
 71154  1  0
 74155  1  0
 74156  1  0
 74157  1  0
 75158  1  0
 75159  1  0
 77160  1  0
 77161  1  0
 79162  1  0
 80163  1  0
 80164  1  0
 81165  1  0
 81166  1  0
 83167  1  0
 83168  1  0
 86169  1  0
 86170  1  0
 86171  1  0
 87172  1  0
 87173  1  0
 87174  1  0
 88175  1  0
 89176  1  0
 89177  1  0
 90178  1  0
 90179  1  0
 92180  1  0
 92181  1  0
M  CHG  6  22   1  26   1  31   1  46  -3  49   1  60  -1
M  END
>  <DATABASE_ID>  (1) 
DB00115

>  <DATABASE_NAME>  (1) 
drugbank

>  <DRUGBANK_ID>  (1) 
DB00115

>  <DRUG_GROUPS>  (1) 
approved; nutraceutical

>  <EXACT_MASS>  (1) 
1354.5674053

>  <FORMULA>  (1) 
C63H88CoN14O14P

>  <GENERIC_NAME>  (1) 
Cyanocobalamin

>  <INCHI_IDENTIFIER>  (1) 
InChI=1S/C62H90N13O14P.CN.Co/c1-29-20-39-40(21-30(29)2)75(28-70-39)57-52(84)53(41(27-76)87-57)89-90(85,86)88-31(3)26-69-49(83)18-19-59(8)37(22-46(66)80)56-62(11)61(10,25-48(68)82)36(14-17-45(65)79)51(74-62)33(5)55-60(9,24-47(67)81)34(12-15-43(63)77)38(71-55)23-42-58(6,7)35(13-16-44(64)78)50(72-42)32(4)54(59)73-56;1-2;/h20-21,23,28,31,34-37,41,52-53,56-57,76,84H,12-19,22,24-27H2,1-11H3,(H15,63,64,65,66,67,68,69,71,72,73,74,77,78,79,80,81,82,83,85,86);;/q;;+2/p-2/t31-,34-,35-,36-,37+,41-,52-,53-,56-,57+,59-,60+,61+,62+;;/m1../s1

>  <INCHI_KEY>  (1) 
RMRCNWBMXRMIRW-WZHZPDAFSA-L

>  <INTERNATIONAL_BRANDS>  (1) 
Bedodeka; Bedoz; Berubigen; Betalin; Cobione; Cobolin-M; Crystamine; Cyanoject; Cyomin; Cytakon; Cytamen; Dicopac; Neuroforte-R; Primabalt; Rubramin PC; Vitabee 12

>  <JCHEM_ACCEPTOR_COUNT>  (1) 
14

>  <JCHEM_ATOM_COUNT>  (1) 
181

>  <JCHEM_AVERAGE_POLARIZABILITY>  (1) 
134.6134309987649

>  <JCHEM_BIOAVAILABILITY>  (1) 
0

>  <JCHEM_DONOR_COUNT>  (1) 
9

>  <JCHEM_FORMAL_CHARGE>  (1) 
0

>  <JCHEM_GHOSE_FILTER>  (1) 
0

>  <JCHEM_IUPAC>  (1) 
(10S,12R,13S,17R,23R,24R,25R,30S,35S,36S,40S,41S,42R,46R)-30,35,40-tris(2-carbamoylethyl)-24,36,41-tris(carbamoylmethyl)-1-cyano-46-hydroxy-12-(hydroxymethyl)-5,6,17,23,28,31,31,36,38,41,42-undecamethyl-15,20-dioxo-11,14,16-trioxa-2λ⁵,9,19,26,43λ⁵,44λ⁵,45λ⁵-heptaaza-15λ⁵-phospha-1-cobaltadodecacyclo[27.14.1.1¹,³⁴.1²,⁹.1¹⁰,¹³.0¹,²⁶.0³,⁸.0²³,²⁷.0²⁵,⁴².0³²,⁴⁴.0³⁹,⁴³.0³⁷,⁴⁵]heptatetraconta-2(47),3,5,7,27,29(44),32,34(45),37,39(43)-decaene-2,43,44,45-tetrakis(ylium)-1,1,1-triuid-15-olate

>  <JCHEM_LOGP>  (1) 
-14.006396765886983

>  <JCHEM_MDDR_LIKE_RULE>  (1) 
1

>  <JCHEM_NUMBER_OF_RINGS>  (1) 
12

>  <JCHEM_PHYSIOLOGICAL_CHARGE>  (1) 
0

>  <JCHEM_PKA>  (1) 
12.572930370280162

>  <JCHEM_PKA_STRONGEST_ACIDIC>  (1) 
1.8185515449284937

>  <JCHEM_PKA_STRONGEST_BASIC>  (1) 
-0.5532934785767775

>  <JCHEM_POLAR_SURFACE_AREA>  (1) 
440.7899999999999

>  <JCHEM_REFRACTIVITY>  (1) 
344.1239000000001

>  <JCHEM_ROTATABLE_BOND_COUNT>  (1) 
16

>  <JCHEM_RULE_OF_FIVE>  (1) 
0

>  <JCHEM_TRADITIONAL_IUPAC>  (1) 
(10S,12R,13S,17R,23R,24R,25R,30S,35S,36S,40S,41S,42R,46R)-30,35,40-tris(2-carbamoylethyl)-24,36,41-tris(carbamoylmethyl)-1-cyano-46-hydroxy-12-(hydroxymethyl)-5,6,17,23,28,31,31,36,38,41,42-undecamethyl-15,20-dioxo-11,14,16-trioxa-2λ⁵,9,19,26,43λ⁵,44λ⁵,45λ⁵-heptaaza-15λ⁵-phospha-1-cobaltadodecacyclo[27.14.1.1¹,³⁴.1²,⁹.1¹⁰,¹³.0¹,²⁶.0³,⁸.0²³,²⁷.0²⁵,⁴².0³²,⁴⁴.0³⁹,⁴³.0³⁷,⁴⁵]heptatetraconta-2(47),3,5,7,27,29(44),32,34(45),37,39(43)-decaene-2,43,44,45-tetrakis(ylium)-1,1,1-triuid-15-olate

>  <JCHEM_VEBER_RULE>  (1) 
0

>  <MOLECULAR_WEIGHT>  (1) 
1355.3652

>  <PRODUCTS>  (1) 
Active FE; Adult Infuvite Multiple Vitamins; Aj-cyanocobalamin; Alphaligo; Alsimine W Vitamins A D; Am Caps; American Eagle Energizer Plus Vitamin Supplement Drink; American Plus Energy & Vitamin Drink; Animi-3; Animi-3 with Vitamin D; Av-VITE FB; Avon Nutrivance Vitamin E Plus; B 50 Capsules; B C Antistress Cap; B Complex 25mg Vitamin Supplement; B Complex 50 Vitamin Cap; B Complex 50+ Caplet; B Complex Plus C 300mg Tab; B Complex Tablets; B Complex W C Forte Cap; B Complex W C and B12 Inj; B Complex W Vit C W Non-med Yeast&liver Tab; B Complex W Vitamin C Fortis Cap; B Complex With C 300mg; B Complex With C 550mg; B Compound 50mg Tab; B Stress C + Iron & Vite; B Virol; B Vitamin Compound With B12 Thunas; B With C 500 Cap; B-100 Caps; B-100 Complex Tablets; B-100 Hi Potency B Vitamins Tab; B-12 1000 Inj 1000mcg/ml; B-12 1000mcg Continuous Released Tab; B-50 Complex; B-50 Complex Tab; B-50 Hi Potency B Vitamins Tab; B-complex; B-complex 100; B-complex 50; B-complex Tab; B-complex Tablets; B-complex With Vitamin C, Biotin, Folic Acid; B-complex-50 Tab; B-plex; B-plus - Tab; B12 1000mcg; B12 250mcg Cyanocobalamin; B12 Inject Kit; B50 B Complex Tab; B50 Complex; B6, B12 & Folic Acid; B6, B12 & Folic Acid Multi-vitamin Tablets; Bacmin; Balanced B 125 Srt; Balanced B-100 B-complex Vitamins Tab; Balanced B-50 B-complex Vitamins Tab; Balanced B-50 B-complex Vitamins, Timed Rele; Balanced B-50 Complex; Balanced B-complex Vit + Vit C&e Tab; Balanced B100; Balanced B50 Complex; Bedoz 1000inj; Beminal Fortis Elx; Beminal With C Fortis Cap; Bev 29 Tab; Bev B-150; BiferaRx; Bio-b12; BioFerr 90; Biovim Tab; Bugs Bunny Chew Multi Vit Plus Iron; Bugs Bunny and Friends Multiple Vitamins; C-B Complex; C-Nate DHA; C-force; C.R.D.-force; Calcium Folic Acid Plus D Chewable; Carbassist Tablets; Cataplex B12 Tab 6mcg; Cda-21 Vitamins With Non-medicinal Probiotic Complex; Cedevita Plus Vitamin Supplement; Cedevita Sugar-free Vitamin Supplement; Central-vite 18 Essential; Century Complete; Chela-chromium 200; Chew.multiple Vits.with Extra C for Children; Chewable Multiple Vit Plus Iron for Children; Chewable Multiple Vitamins Plus Extra C; Chewable Multiple Vitamins Plus Iron Tab; Chewable Multiple Vitamins Tab; Chewable Multiple Vitamins for Children; Chewable Multivitamins; Chewable Multivitamins Plus Iron; Children Choice Multivit Chewable Tab; Children Choice Multivitamin W Iron Chew Tab; Children's Chewable Multi Vit W Iron; Children's Chewable Multi Vitamins; Children's Chewable Multi Vitamins With Iron Tablets; Children's Chewable Multi-vitamin; Children's Chewable Multi-vitamin Complete With Minerals; Children's Chewable Multiple Vit.plus Iron; Children's Chewable Multiple Vitamins (chewable Tablets); Children's Chewable Multiple Vitamins - Tab; Children's Chewable Multiple Vitamins With Extra Vitamin C (chewable Tablets); Children's Chewable Multiple Vitamins With Iron Tablets (chewable Tablets); Children's Chewable Multivitamin and Multimineral; Children's Vitamins Chewable; Children's Vitamins W Iron Chewable; Childrens Chew Multi Vitamin Tab; Childrens Chewable Multiple Vitamins; Childrens Chewable Multiple Vitamins Plus Fe; Childrens Chewable Multiple Vitamins Tab; Childrens Chewable Multivitamins; Childrens Chewable Multivitamins W Iron; Childrens Chewable Vitamin Tab; Childrens Chewable Vitamins; Childrens Multiple Vit and Min Chew Tab; Chromagen; CitraNatal Bloom; Cobex Inj 1000mcg/ml; Complete Mega B; Complete Multivitamins and Minerals for Children; Complex-75; Complexe B 75mg; Complexe B Compose 75; Complexe B-75; Concept DHA; Concept OB; Cool B; Crystalline Vitamin B12-liq Im Sc 1000mcg/ml; Cyanocobalamin; Cyanocobalamin Injection USP; Cyanocobalamin Injection USP 1000mcg/ml; Cyanocobalamin Injection, USP; Cyanocobalamine; Daily Energy Brand B-complex; Daily Supplement Packs; Derma-force; Dia-vite; Diaplex; Divista; Dynam Ampoule Et Tablet; E.S.T. Complex; Earthpals Children's Chewables Multi-vitamin & Mineral Tablets; Efferlife Multivitamins and Minerals; Energy 80 Prolonged Release Tab; Enrich Core Pack - Children Vitamin and Mineral Supplement; Enviroflex - Tab; Escavite; Essential B Tablets; Everyday Multiple Vitamins; Everyday Multiple Vitamins With Iron; Extra P.N. Vitamin-mineral Drink Mix; Ez-flex; FE C Tab Plus; FaBB Tablets; FeRiva; FeRiva FA; FeRivaFA; Fem - Control; Feminex 300 Tab; Feminique W Iron and Calcium Tab; Femitab Tab; Ferralet 90; Fib-C Melts; Flexadyn Tab; Flinstones Multiple Plus Iron; Flintstones Multiple Vitamins; Flintstones Multiple Vitamins Plus Iron; Flintstones Multiple Vitamins Tab; Flintstones W Extra C Tab; Floravit - Syr; Floriva; Floriva Plus; Folbic; Folcaps; Folet One; Folic Acid Plus; Folic Acid With Vitamin B12 and Vitamin C; Folic Acid-b12 Tab; Foltabs 800; Foltrate; For Kids Only Chewable Multivit. Plus Iron; For Kids Only Chewable Multivitamins - Tab; Formula Ch. Les.; Formula Cn; Formula D.S.; Formula Int; Formula Lf; Formula Pro-B; Formula Statin Support; Forphyll 3mcg; Fortamines 10 Capsules; Fortamines-10 Comprimes; Fortaplex Inj; Fortiplex; Forty Plus Vitamin Supplement; Fusion Activator Formula Tab; G.A.S. Complex; Gestamine Comprimes; Gesticare DHA; Glyco-aide Tab; Golf Vitamin and Mineral Supplement; Gsf Tab 24mcg; H. Formula - Tab; Harvest Of Values All B Complex Tab; Hemarexin Tab; Hematogen; Hematogen FA; Hematogen Forte; HemeNatal OB; Hemetab; Heparos Ampoules Buvables; Hi Potency B Complex W Chelated Minerals; Hi Potency B52 B Complex Tab; Hi Potency Balanced B-100 Complex - Tab; Hi Potency Stress B Tension With C; High Potency Vitamin B Complex + C Tab; Hill.vite; Homosistrol Capsules; Homosistrox Capsules; Hormodausse Plus Calc Et D Tab; Hypo Vites Tab; INATAL Ultra; Iberet 500; Iferex 150 Forte; Inatal Advance; Infuvite Adult Multiple Vitamins; Insur-all Vitamin Supplement; Iron 25mg With Vit B-cmplx, Vit C, Cu & Mo; Iron Plus Manganese, B12, Folic Acid & C; Iron Plus Tab; Iron Polysaccharides Folic Acid DHA; Iron Vitamins B6,b12,c,folic Acid Tab; Iron With Vitamins Tab; Isotonix Advanced B-complex Vitamins With Potassium and Magnesium; Isotonix Vitamin B-folic Acid-mineral Supple; Jamp-cyanocobalamin; Kanga Sport Vitamins B & C Plus Minerals; Kanga-B Vitamin B Group + C; Kanga-V Multivitamins & Minerals; Kanga-kid Multi-vitamin & Mineral; Kanga-kid Vitamins & Iron; Kc Vitamin and Mineral Supplement; Kid's Choice Children's Chewable Vitamins - Tab; Kids Stuff Tablets; Kids Stuff With Iron Tablets; Kindervites; L.I.P. Complex; Leritone Junior; Lipo-B-C Tab; Lipovitan; Liqui B Complex; Liqui B Complex Plus; Liqui Infant Vitamins; Liqui Vita; Liquid B Complex 50; Livron Plus Ampoule; Livron Plus Tab; Low Potency B Complex Tab; Lysamine Diet Supp Amp-tab; M.V.I. 12; M.V.I. Paediatric; M.V.I. Pediatric; MVC-Fluoride; Maltlevol 12 Liq; Mangadyn; MaxFe; Maxi 10 Tab; Mega 13 Multivitamin Formula; Menocal Tab; Meplex T 750; Mini-B Tab; Mor-vites Tab; Mr. Tumee Multi-vitamin; Multi #2; Multi - N.T.O.x Formula - Tab; Multi 12 Injection; Multi B; Multi Enfants Tab; Multi Nt-OX; Multi Rol; Multi Tabs; Multi Vitamin & Minerals; Multi Vitamin - Mineral; Multi Vitamin Drops with Fluoride; Multi Vitamin Infusion; Multi Vitamin Plus Iron; Multi Vitamin and Fluoride; Multi Vitamin with Fluoride; Multi Vitamin-mineral Formula; Multi Vitamines - Liq; Multi Vitamins & Minerals; Multi Vite Liq Adult; Multi Vite Liq Junior; Multi-11; Multi-12 Pediatric; Multi-12/k1 Pediatric; Multi-Vit with Fluoride; Multi-Vitamin; Multi-Vitamin Fluoride; Multi-Vitamin Fluoride Drops; Multi-Vitamin With Fluoride; Multi-Vitamin with Fluoride; Multi-vitamin Dietary Supplement; Multi-vitamines Enfants Comprime; Multi-vitamins; Multi-vitamins With Minerals; Multicaps; Multiple Vit Plus Iron Tab; Multiple Vitamin Plus Minerals Tab; Multiple Vitamin Tab; Multiple Vitamins; Multiple Vitamins & Minerals Tablets; Multiple Vitamins Plus Iron Tab; Multiple Vitamins Plus Iron for Women; Multiple Vitamins Tab; Multiple Vitamins W Minerals Tab; Multiple Vitamins With Iron; Multiple Vitamins With Minerals Tablets; Multiple Vitamins and Minerals Capsules; Multiple Vitamins and Minerals Tab; Multisol; Multitabs; Multivit Et Fer Ampoules Et Comprimes; Multivit-liq; Multivitamin; Multivitamin Drops with Fluoride; Multivitamin with Fluoride; Multivitamin with fluoride; Multivitamines Et Mineraux; Multivitamines Et Mineraux Junior Regulier; Multivitamines Et Mineraux Reguliers / Regular Multivitamins and Minerals; Multivitamines Plus Fer Pour Enfants (chewable Tablets); Multivitamines Pour Enfants (chewable Tablets); Multivitamins W Iron; Multivitamins W Minerals Extra Strength; Multivitamins and Minerals - Complete; Multivitamins and Multiminerals Formula Regular Tablet; Multivitamins for Children; Mvc; Myferon 150 Forte; Myhephron Dialysis and Stress Supplement; Mynephrocaps Dialysis/stress Vitamin Supplement; N.E.U. Complex; N.U.T. Complex; Nascobal; Nata Komplete; NataFort; Natavite; Neo Bex Elixir; Nephrocaps; Nestabs ONE; Neutral C + Coenzyme Q10 Plus Vitamins & Minerals; Niferex; Niron Komplete; Nrg Plus Liq; NuFera; Nutrifer Plus Tablets; Nutrilite Double X; Nutrol-B-complex; O-Cal FA multivitamin; O-Cal Prenatal Vitamin; Onccor; One A Day Advance Adults; One A Day Advance Adults 50+; One A Day Advance Fem; One A Day Multiple Vit W Minerals; One A Day Tab; Orange Flavored Crystal Chews Tab; Orti B; P.N.P. Vitamin Drink; P.R.O. Complex; PM Caps; PNV Ferrous Fumarate Docusate Folic Acid; PNV Prenatal Plus Multivitamin; PNV Prenatal Vitamin; PNV Prenatal Vitamin Plus Vitamin A; PNV-First; PNV-Select; PRENATE Enhance; PRENATE Restore; Paramettes Multivits Plus Iron Tab (teens); Paramettes Syrup; Pediatric Infuvite Multiple Vitamins; Pediatric Infuvite Multiple Vitamins for Infusion; Phosthenine Vitamines Et Fer (ampoules Buvable); Phytofortis + Calcium A-D; Phytoplex B Liq; Phytopure; Pnv-dha; Polymine Avec Zinc Et Cuivre; Pour Ma Santé; PreNatal 19; PreNatal Vitamins Plus; PrePLUS; PreQue 10; PreTAB; Prefera OB plus DHA; PreferaOB; PreferaOB ONE; PreferaOB One; PreferaOB plus DHA; Pregvit; Pregvit Folic 4; Pregvit Folic 5; Prenatal Mega Antioxidant; Prenatal Plus; Prenatal Plus Iron; Prenatal Vitamins Plus; Prenatal Vitamins Plus Low Iron; Prenatal, DHA; Prenate AM; Prenate Elite; Prenate Essential; Prenate Pixie; Prenate Star; Prevital Tab; PureVit DualFe Plus; Puro Sang Tab 1mcg; Q.T. Vitamin and Mineral Drink Mix; Reaphirm Plant Source DHA; Red American Eagle Vitamin Supplement Drink; Reebok; Reno Caps; Replavite; Revit Plus Cap; Revitex Ampoules Et Comprimes; Revival 1 Tab; Right Choice A.M. Multi Formula - Caplet; Rubion 1000; Rubramin 1000mcg/ml; Scheinpharm B12 Injection; Se-Natal 19; Se-Natal 19 Chewable; Se-Natal One; Se-Tan PLUS; Sibergin B - Cap; Somarexin and C 1000; Sopalamine 3b Plus; Sopalamine/3b Plus C; Sopalamine/3b Tab; Spd Tab; Spectrum 2 Cap; Stress B Capsules With Vitamin C; Stress B Complex With C, E & Iron; Stress B With 1000 Mg Vitamin C; Stress B&c Tab; Stress Complex 600 Avec Vit E Cuivre Zinc; Stress Ctr Srt; Stress Formula; Stress Formula + Iron; Stress Formula B-comp + 500mg Vit C Tab; Stress Formula Multi-B Comp + 500mg Vit C Cap; Stress Formula Multivitamin Tablets USP; Stress Formula Tab; Stress Formula Vit B With C Complex; Stress Forte Plus Lipotropic Factors; Stress Tab; Stress Tab With Iron and Vitamin E; Stress Tab With Zinc, Copper and Vitamin E; Stress Vitamin B With C Complex Tablets; Stressmates; Strovite Forte Caplet; Strovite One Caplets; Sun-rype Vitaburst; Super B Compound W 500mg Vit C; Super B12 + Folic Acid; Super Charged Energy; Super Daily No 2; Super Kids Chewable Multivitamin Multimineral (chewable Tablets); Super Pantoplex; Super Stress Capsules; Super Stress Mega B Plus 1000mg Vit C Tab; Super Vitalex Ampoule Buvable; Super-pote Vitamin Supplement; Supravite 10ml Ampoule; Supravite Bouteille 250ml; Supravite C 1000; Supravite Stress Avec Vit E; Supravite Stress Avec Vit E Cuivre Et Zinc; Supravite Stress Avec Vit E Et Fer; Surbex 500 Filmtab; Surbex-500 With Iron; Surbex-500 With Zinc; Sveets; Swical-energy-2; T.R.I. B-plex Src; Tandem OB; Tandem Plus; Tar-end; Time Release B 100 Compound  -  Tablet; Timed Release B Complex 100 Srt; Timed Release B-complex 100; Timed Release B-complex 50; Tini-cal Ampoules; Tl-hem 150; Toni Com Liq; Tonicol Et A-D-C Ampoules/comprimes; Tozal; Trace Minerals Et/and B12 Tab; TriAdvance; Tricare Prenatal; Tricon; Trinatal GT; Ultra Enerforce; Usana Megavitamin Tablets - Tab; VP-HEME One; VP-heme OB; Vege 1 Daily Tab; Viamon Ampoules Et Comprimes; Vigem 12 Liquid; Vimeral Tab; Virt-Caps; Virt-PN Plus; Virt-Pn; Virt-Pn DHA; Virt-Vite; Virt-Vite Plus; Vit B Complex Ctr; Vit B Complex Plus Vit C 550mg; Vit B12 Ctr Srt 1200mcg; Vit B12 Tab 500mcg; Vita B + C 500 Tab; Vita B Complex Tab; Vita Day Tab; Vita-B; Vita-B-75 Cap; Vita-folic-B Caps; Vita-worth B-complex Tablets; Vitabanks Vitamin Tab; Vitachrom Gc; Vitaday Tab; Vitafer - Liq; Vitaflex Dietary Suplement; Vitafol Caplet; Vitafol Nano; Vitafol OB Caplet; Vitafol One; Vitafol Plus; Vitafol Ultra; Vital Be-100; Vitalife  -  Capsule; Vitamin B + C Cap; Vitamin B 12 Tab 25mcg; Vitamin B Complex + C 300mg Cap; Vitamin B Complex + C 600mg Tab; Vitamin B Complex 100 Tab; Vitamin B Complex 50; Vitamin B Complex Plus 300mg Vitamin C; Vitamin B Complex Suppl; Vitamin B Complex Tab; Vitamin B Complex W C 300mg Tab; Vitamin B Complex W C Tab; Vitamin B Compound Tab; Vitamin B Compound W C Tab 500mg; Vitamin B Compound W Vit C 250mg Tab; Vitamin B Compound With Vitamin C Fortis Capsule Dtc; Vitamin B Tablets; Vitamin B-12 500 Mcg  -  Tablets; Vitamin B-12 Tablet; Vitamin B-12 With Folic Acid Tablets; Vitamin B12; Vitamin B12  50mcg Tab; Vitamin B12 (cyanocobalamin) 1000mcg Caplet; Vitamin B12 100 Mcg; Vitamin B12 100 Mcg Tablets; Vitamin B12 1000 Mcg; Vitamin B12 100mcg; Vitamin B12 250mcg; Vitamin B12 250mcg Tablets; Vitamin B12 500 Mcg; Vitamin B12 500mcg; Vitamin B12 Cap 500mcg USP; Vitamin B12 Cyanocobalamin Injection, USP 1000 Mcg/ml; Vitamin B12 Cyanocobalamine 500 Mcg; Vitamin B12 Inj 1000mcg/ml; Vitamin B12 Inj 100mcg/ml; Vitamin B12 Plus Tablets W Folic Acid; Vitamin B12 Srt 1000mcg; Vitamin B12 Tab 100mcg; Vitamin B12 Tab 250mcg; Vitamin B12 Tab 25mcg; Vitamin B12 Tab 500mcg; Vitamin B12 Tab 5mcg; Vitamin B12 Tablets 250mcg; Vitamin B12-folic Acid; Vitamin B6 & B12 With Folic Acid; Vitamin Deficiency Injectable System - B12; Vitamine 110 Liq; Vitamine B-12 Tab 100mcg; Vitamine B12  25 Mcg  -  Tablet; Vitamine B12 250mcg; Vitamine B12 Tab 25mcg; Vitamine B12 Tab 3mcg Chewable; Vitamine Du Groupe B Plus Fer - Liq; Vitamines Et Mineraux; Vitamines Et Mineraux Comprimes; Vitamines Et Mineraux Enfants 970; Vitaplex; Vitogen B Compound W C Fortis Capsules; Vitogen B Stress C Vit E Zinc & Cop; Vitogen B Stress C600; Vitogen Multiple Vitamins Tab; Vitogen Multiple Vitamins W Iron; Vitreat Chewable Vitamin Tab; Vitreat Chewable Vitamins Plus Iron; Vtb Vitamin and Mineral Supplement; Women's Change Formula; Women's Formula; Zoo Chews

>  <SECONDARY_ACCESSION_NUMBERS>  (1) 
NUTR00004; APRD00326; EXPT00965

>  <SMILES>  (1) 
[C@H]1([C@@H]2[C@H]([C@@H](N3C4=CC(=C(C)C=C4[N+]([Co-3]456(N7C8=C(C9=[N+]4C(C([C@@H]9CCC(N)=O)(C)C)=CC4=[N+]5C(=C(C5=[N+]6[C@@]([C@]7([C@@H]([C@@]8(C)CCC(=O)NC[C@@]([H])(C)OP([O-])(=O)O2)CC(N)=O)[H])([C@@]([C@@H]5CCC(N)=O)(C)CC(N)=O)C)C)[C@@]([C@@H]4CCC(N)=O)(C)CC(N)=O)C)C#N)=C3)C)O1)O)CO

>  <SYNONYMS>  (1) 
Cyanocob(III)alamin; Vitamin B12; Vitamin B12 complex; Vitamin B12 NOS

$$$$
