328
     RDKit          2D

 41 43  0  0  0  0  0  0  0  0999 V2000
    8.7741    2.4559    0.0000 Cl  0  0  0  0  0  0  0  0  0  0  0  0
    2.3645   -0.4977    0.0000 O   0  0  0  0  0  0  0  0  0  0  0  0
    4.9939    2.3894    0.0000 O   0  0  0  0  0  0  0  0  0  0  0  0
    5.2503   -2.5191    0.0000 O   0  0  0  0  0  0  0  0  0  0  0  0
    4.1866   -1.5648    0.0000 O   0  0  0  0  0  0  0  0  0  0  0  0
    5.2886    0.9912    0.0000 N   0  0  0  0  0  0  0  0  0  0  0  0
    5.2886   -0.3367    0.0000 C   0  0  0  0  0  0  0  0  0  0  0  0
    4.5080   -0.0852    0.0000 C   0  0  0  0  0  0  0  0  0  0  0  0
    4.5080    0.7398    0.0000 C   0  0  0  0  0  0  0  0  0  0  0  0
    5.7701    0.3273    0.0000 C   0  0  0  0  0  0  0  0  0  0  0  0
    5.5449   -1.1209    0.0000 C   0  0  0  0  0  0  0  0  0  0  0  0
    3.7935   -0.4977    0.0000 C   0  0  0  0  0  0  0  0  0  0  0  0
    3.7935    1.1523    0.0000 C   0  0  0  0  0  0  0  0  0  0  0  0
    6.5951    0.3273    0.0000 C   0  0  0  0  0  0  0  0  0  0  0  0
    5.5449    1.7754    0.0000 C   0  0  0  0  0  0  0  0  0  0  0  0
    3.0791   -0.0852    0.0000 C   0  0  0  0  0  0  0  0  0  0  0  0
    3.0791    0.7398    0.0000 C   0  0  0  0  0  0  0  0  0  0  0  0
    6.3522    1.9455    0.0000 C   0  0  0  0  0  0  0  0  0  0  0  0
    4.9939   -1.7349    0.0000 C   0  0  0  0  0  0  0  0  0  0  0  0
    6.6086    2.7297    0.0000 C   0  0  0  0  0  0  0  0  0  0  0  0
    6.9032    1.3314    0.0000 C   0  0  0  0  0  0  0  0  0  0  0  0
    7.4158    2.8999    0.0000 C   0  0  0  0  0  0  0  0  0  0  0  0
    7.7105    1.5016    0.0000 C   0  0  0  0  0  0  0  0  0  0  0  0
    7.9668    2.2858    0.0000 C   0  0  0  0  0  0  0  0  0  0  0  0
    1.6500   -0.0852    0.0000 C   0  0  0  0  0  0  0  0  0  0  0  0
    0.0000    0.0000    0.0000 H   0  0  0  0  0  0  0  0  0  0  0  0
    0.0000    0.0000    0.0000 H   0  0  0  0  0  0  0  0  0  0  0  0
    0.0000    0.0000    0.0000 H   0  0  0  0  0  0  0  0  0  0  0  0
    0.0000    0.0000    0.0000 H   0  0  0  0  0  0  0  0  0  0  0  0
    0.0000    0.0000    0.0000 H   0  0  0  0  0  0  0  0  0  0  0  0
    0.0000    0.0000    0.0000 H   0  0  0  0  0  0  0  0  0  0  0  0
    0.0000    0.0000    0.0000 H   0  0  0  0  0  0  0  0  0  0  0  0
    0.0000    0.0000    0.0000 H   0  0  0  0  0  0  0  0  0  0  0  0
    0.0000    0.0000    0.0000 H   0  0  0  0  0  0  0  0  0  0  0  0
    0.0000    0.0000    0.0000 H   0  0  0  0  0  0  0  0  0  0  0  0
    0.0000    0.0000    0.0000 H   0  0  0  0  0  0  0  0  0  0  0  0
    0.0000    0.0000    0.0000 H   0  0  0  0  0  0  0  0  0  0  0  0
    0.0000    0.0000    0.0000 H   0  0  0  0  0  0  0  0  0  0  0  0
    0.0000    0.0000    0.0000 H   0  0  0  0  0  0  0  0  0  0  0  0
    0.0000    0.0000    0.0000 H   0  0  0  0  0  0  0  0  0  0  0  0
    0.0000    0.0000    0.0000 H   0  0  0  0  0  0  0  0  0  0  0  0
  1 24  1  0
  2 16  1  0
  2 25  1  0
  3 15  2  0
  4 19  1  0
  5 19  2  0
  6  9  1  0
  6 10  1  0
  6 15  1  0
  7  8  1  0
  7 10  2  0
  7 11  1  0
  8  9  2  0
  8 12  1  0
  9 13  1  0
 10 14  1  0
 11 19  1  0
 12 16  2  0
 13 17  2  0
 15 18  1  0
 16 17  1  0
 18 20  2  0
 18 21  1  0
 20 22  1  0
 21 23  2  0
 22 24  2  0
 23 24  1  0
  4 26  1  0
 11 27  1  0
 11 28  1  0
 12 29  1  0
 13 30  1  0
 14 31  1  0
 14 32  1  0
 14 33  1  0
 17 34  1  0
 20 35  1  0
 21 36  1  0
 22 37  1  0
 23 38  1  0
 25 39  1  0
 25 40  1  0
 25 41  1  0
M  END
>  <ALOGPS_LOGP>  (1) 
4.25

>  <ALOGPS_LOGS>  (1) 
-5.17

>  <ALOGPS_SOLUBILITY>  (1) 
2.40e-03 g/l

>  <DATABASE_ID>  (1) 
DB00328

>  <DATABASE_NAME>  (1) 
drugbank

>  <DRUGBANK_ID>  (1) 
DB00328

>  <DRUG_GROUPS>  (1) 
approved; investigational

>  <EXACT_MASS>  (1) 
357.076785712

>  <FORMULA>  (1) 
C19H16ClNO4

>  <GENERIC_NAME>  (1) 
Indomethacin

>  <INCHI_IDENTIFIER>  (1) 
InChI=1S/C19H16ClNO4/c1-11-15(10-18(22)23)16-9-14(25-2)7-8-17(16)21(11)19(24)12-3-5-13(20)6-4-12/h3-9H,10H2,1-2H3,(H,22,23)

>  <INCHI_KEY>  (1) 
CGIGDMFJXJATDK-UHFFFAOYSA-N

>  <INTERNATIONAL_BRANDS>  (1) 
Arthrexin; Elmetacin; Indaflex; Indocid; Indolar SR; Indomed; Indoxen; Metindol; Mikametan; Nu-Indo; Reumacide

>  <JCHEM_ACCEPTOR_COUNT>  (1) 
4

>  <JCHEM_AVERAGE_POLARIZABILITY>  (1) 
36.64071784517021

>  <JCHEM_BIOAVAILABILITY>  (1) 
1

>  <JCHEM_DONOR_COUNT>  (1) 
1

>  <JCHEM_FORMAL_CHARGE>  (1) 
0

>  <JCHEM_GHOSE_FILTER>  (1) 
1

>  <JCHEM_IUPAC>  (1) 
2-[1-(4-chlorobenzoyl)-5-methoxy-2-methyl-1H-indol-3-yl]acetic acid

>  <JCHEM_LOGP>  (1) 
3.529674379666666

>  <JCHEM_MDDR_LIKE_RULE>  (1) 
0

>  <JCHEM_NUMBER_OF_RINGS>  (1) 
3

>  <JCHEM_PHYSIOLOGICAL_CHARGE>  (1) 
-1

>  <JCHEM_PKA_STRONGEST_ACIDIC>  (1) 
3.802743823450041

>  <JCHEM_PKA_STRONGEST_BASIC>  (1) 
-2.2657713907246055

>  <JCHEM_POLAR_SURFACE_AREA>  (1) 
68.53

>  <JCHEM_REFRACTIVITY>  (1) 
94.8106

>  <JCHEM_ROTATABLE_BOND_COUNT>  (1) 
4

>  <JCHEM_RULE_OF_FIVE>  (1) 
1

>  <JCHEM_TRADITIONAL_IUPAC>  (1) 
indomethacin

>  <JCHEM_VEBER_RULE>  (1) 
0

>  <MOLECULAR_WEIGHT>  (1) 
357.788

>  <PRODUCTS>  (1) 
Apo Indomethacin Cap 25mg; Apo Indomethacin Cap 50mg; Ftp-indomethacin; Indocid Cap 25mg; Indocid Cap 50mg; Indocid SR 75mg; Indocid Sterile Oph Susp 1%; Indocid Sup 100mg; Indocid Sup 50mg; Indocin; Indocollyre; Indomethacin; Indomethacin ER; Indomethacin Extended-Release; Indomethacin extended-release; Mint-indomethacin; Novo-methacin - 100mg Sup; Novo-methacin - Sup 50mg; Ntp-indomethacin; Nu-indo Cap 25mg; Nu-indo Cap 50mg; Pro-indo 25 Cap 25mg; Pro-indo 50 Cap 50mg; Ratio-indomethacin; Rhodacine - Cap 25mg; Rhodacine - Cap 50mg; Rhodacine - Sup 100mg; Rhodacine - Sup 50mg; Sandoz Indomethacin; Teva-indomethacin; Tivorbex

>  <SALTS>  (1) 
Indomethacin sodium

>  <SECONDARY_ACCESSION_NUMBERS>  (1) 
APRD00109

>  <SMILES>  (1) 
COC1=CC2=C(C=C1)N(C(=O)C1=CC=C(Cl)C=C1)C(C)=C2CC(O)=O

>  <SYNONYMS>  (1) 
1-(p-chlorobenzoyl)-5-methoxy-2-methylindole-3-acetic acid; Indometacin

$$$$
