227
     RDKit          2D

 65 67  0  0  1  0  0  0  0  0999 V2000
    3.0790    0.4577    0.0000 O   0  0  0  0  0  0  0  0  0  0  0  0
    5.9312   -1.2373    0.0000 O   0  0  0  0  0  0  0  0  0  0  0  0
    3.7736   -2.4499    0.0000 O   0  0  0  0  0  0  0  0  0  0  0  0
    1.6500    0.4577    0.0000 O   0  0  0  0  0  0  0  0  0  0  0  0
    6.6313   -2.4829    0.0000 O   0  0  0  0  0  0  0  0  0  0  0  0
    3.7935    1.6952    0.0000 C   0  0  0  0  0  0  0  0  0  0  0  0
    4.5309    1.2542    0.0000 C   0  0  0  0  0  0  0  0  0  0  0  0
    3.0790    1.2827    0.0000 C   0  0  0  0  0  0  0  0  0  0  0  0
    5.2785    1.6781    0.0000 C   0  0  0  0  0  0  0  0  0  0  0  0
    3.7935    2.5202    0.0000 C   0  0  0  0  0  0  0  0  0  0  0  0
    4.5215    0.4292    0.0000 C   0  0  0  0  0  0  0  0  0  0  0  0
    2.3645    1.6952    0.0000 C   0  0  0  0  0  0  0  0  0  0  0  0
    2.3645    2.5202    0.0000 C   0  0  0  0  0  0  0  0  0  0  0  0
    3.0790    2.9327    0.0000 C   0  0  0  0  0  0  0  0  0  0  0  0
    5.2310    0.0084    0.0000 C   0  0  0  0  0  0  0  0  0  0  0  0
    5.2785    2.5374    0.0000 C   0  0  0  0  0  0  0  0  0  0  0  0
    4.5309    2.9614    0.0000 C   0  0  0  0  0  0  0  0  0  0  0  0
    5.9914    1.2628    0.0000 C   0  0  0  0  0  0  0  0  0  0  0  0
    5.2216   -0.8165    0.0000 C   0  0  0  0  0  0  0  0  0  0  0  0
    1.6500    2.9327    0.0000 C   0  0  0  0  0  0  0  0  0  0  0  0
    4.5023   -1.2207    0.0000 C   0  0  0  0  0  0  0  0  0  0  0  0
    4.4928   -2.0457    0.0000 C   0  0  0  0  0  0  0  0  0  0  0  0
    2.3645    0.0452    0.0000 C   0  0  0  0  0  0  0  0  0  0  0  0
    5.2025   -2.4664    0.0000 C   0  0  0  0  0  0  0  0  0  0  0  0
    2.3645   -0.7798    0.0000 C   0  0  0  0  0  0  0  0  0  0  0  0
    5.9217   -2.0622    0.0000 C   0  0  0  0  0  0  0  0  0  0  0  0
    1.6500   -1.1923    0.0000 C   0  0  0  0  0  0  0  0  0  0  0  0
    3.0790   -1.1923    0.0000 C   0  0  0  0  0  0  0  0  0  0  0  0
    1.6500   -2.0173    0.0000 C   0  0  0  0  0  0  0  0  0  0  0  0
    0.0000    0.0000    0.0000 H   0  0  0  0  0  0  0  0  0  0  0  0
    0.0000    0.0000    0.0000 H   0  0  0  0  0  0  0  0  0  0  0  0
    0.0000    0.0000    0.0000 H   0  0  0  0  0  0  0  0  0  0  0  0
    0.0000    0.0000    0.0000 H   0  0  0  0  0  0  0  0  0  0  0  0
    0.0000    0.0000    0.0000 H   0  0  0  0  0  0  0  0  0  0  0  0
    0.0000    0.0000    0.0000 H   0  0  0  0  0  0  0  0  0  0  0  0
    0.0000    0.0000    0.0000 H   0  0  0  0  0  0  0  0  0  0  0  0
    0.0000    0.0000    0.0000 H   0  0  0  0  0  0  0  0  0  0  0  0
    0.0000    0.0000    0.0000 H   0  0  0  0  0  0  0  0  0  0  0  0
    0.0000    0.0000    0.0000 H   0  0  0  0  0  0  0  0  0  0  0  0
    0.0000    0.0000    0.0000 H   0  0  0  0  0  0  0  0  0  0  0  0
    0.0000    0.0000    0.0000 H   0  0  0  0  0  0  0  0  0  0  0  0
    0.0000    0.0000    0.0000 H   0  0  0  0  0  0  0  0  0  0  0  0
    0.0000    0.0000    0.0000 H   0  0  0  0  0  0  0  0  0  0  0  0
    0.0000    0.0000    0.0000 H   0  0  0  0  0  0  0  0  0  0  0  0
    0.0000    0.0000    0.0000 H   0  0  0  0  0  0  0  0  0  0  0  0
    0.0000    0.0000    0.0000 H   0  0  0  0  0  0  0  0  0  0  0  0
    0.0000    0.0000    0.0000 H   0  0  0  0  0  0  0  0  0  0  0  0
    0.0000    0.0000    0.0000 H   0  0  0  0  0  0  0  0  0  0  0  0
    0.0000    0.0000    0.0000 H   0  0  0  0  0  0  0  0  0  0  0  0
    0.0000    0.0000    0.0000 H   0  0  0  0  0  0  0  0  0  0  0  0
    0.0000    0.0000    0.0000 H   0  0  0  0  0  0  0  0  0  0  0  0
    0.0000    0.0000    0.0000 H   0  0  0  0  0  0  0  0  0  0  0  0
    0.0000    0.0000    0.0000 H   0  0  0  0  0  0  0  0  0  0  0  0
    0.0000    0.0000    0.0000 H   0  0  0  0  0  0  0  0  0  0  0  0
    0.0000    0.0000    0.0000 H   0  0  0  0  0  0  0  0  0  0  0  0
    0.0000    0.0000    0.0000 H   0  0  0  0  0  0  0  0  0  0  0  0
    0.0000    0.0000    0.0000 H   0  0  0  0  0  0  0  0  0  0  0  0
    0.0000    0.0000    0.0000 H   0  0  0  0  0  0  0  0  0  0  0  0
    0.0000    0.0000    0.0000 H   0  0  0  0  0  0  0  0  0  0  0  0
    0.0000    0.0000    0.0000 H   0  0  0  0  0  0  0  0  0  0  0  0
    0.0000    0.0000    0.0000 H   0  0  0  0  0  0  0  0  0  0  0  0
    0.0000    0.0000    0.0000 H   0  0  0  0  0  0  0  0  0  0  0  0
    0.0000    0.0000    0.0000 H   0  0  0  0  0  0  0  0  0  0  0  0
    0.0000    0.0000    0.0000 H   0  0  0  0  0  0  0  0  0  0  0  0
    0.0000    0.0000    0.0000 H   0  0  0  0  0  0  0  0  0  0  0  0
  8  1  1  1
  1 23  1  0
  2 19  1  0
  2 26  1  0
 22  3  1  6
  4 23  2  0
  5 26  2  0
  6  7  1  0
  6  8  1  0
  6 10  1  0
  7  9  1  0
  7 11  1  6
  8 12  1  0
  9 16  1  0
  9 18  1  1
 10 14  2  0
 10 17  1  0
 11 15  1  0
 12 13  1  0
 13 14  1  0
 13 20  1  1
 19 15  1  1
 16 17  2  0
 19 21  1  0
 21 22  1  0
 22 24  1  0
 25 23  1  1
 24 26  1  0
 25 27  1  0
 25 28  1  0
 27 29  1  0
  3 30  1  0
  6 31  1  6
  7 32  1  0
  8 33  1  0
  9 34  1  0
 11 35  1  0
 11 36  1  0
 12 37  1  0
 12 38  1  0
 13 39  1  0
 14 40  1  0
 15 41  1  0
 15 42  1  0
 16 43  1  0
 17 44  1  0
 18 45  1  0
 18 46  1  0
 18 47  1  0
 19 48  1  0
 20 49  1  0
 20 50  1  0
 20 51  1  0
 21 52  1  0
 21 53  1  0
 22 54  1  0
 24 55  1  0
 24 56  1  0
 25 57  1  0
 27 58  1  0
 27 59  1  0
 28 60  1  0
 28 61  1  0
 28 62  1  0
 29 63  1  0
 29 64  1  0
 29 65  1  0
M  END
>  <ALOGPS_LOGP>  (1) 
4.11

>  <ALOGPS_LOGS>  (1) 
-4.22

>  <ALOGPS_SOLUBILITY>  (1) 
2.43e-02 g/l

>  <DATABASE_ID>  (1) 
DB00227

>  <DATABASE_NAME>  (1) 
drugbank

>  <DRUGBANK_ID>  (1) 
DB00227

>  <DRUG_GROUPS>  (1) 
approved; investigational

>  <EXACT_MASS>  (1) 
404.256274262

>  <FORMULA>  (1) 
C24H36O5

>  <GENERIC_NAME>  (1) 
Lovastatin

>  <INCHI_IDENTIFIER>  (1) 
InChI=1S/C24H36O5/c1-5-15(3)24(27)29-21-11-14(2)10-17-7-6-16(4)20(23(17)21)9-8-19-12-18(25)13-22(26)28-19/h6-7,10,14-16,18-21,23,25H,5,8-9,11-13H2,1-4H3/t14-,15-,16-,18+,19+,20-,21-,23-/m0/s1

>  <INCHI_KEY>  (1) 
PCZOHLXUXFIOCF-BXMDZJJMSA-N

>  <INTERNATIONAL_BRANDS>  (1) 
Altocor

>  <JCHEM_ACCEPTOR_COUNT>  (1) 
3

>  <JCHEM_AVERAGE_POLARIZABILITY>  (1) 
46.112664928862706

>  <JCHEM_BIOAVAILABILITY>  (1) 
1

>  <JCHEM_DONOR_COUNT>  (1) 
1

>  <JCHEM_FORMAL_CHARGE>  (1) 
0

>  <JCHEM_GHOSE_FILTER>  (1) 
1

>  <JCHEM_IUPAC>  (1) 
(1S,3R,7S,8S,8aR)-8-{2-[(2R,4R)-4-hydroxy-6-oxooxan-2-yl]ethyl}-3,7-dimethyl-1,2,3,7,8,8a-hexahydronaphthalen-1-yl (2S)-2-methylbutanoate

>  <JCHEM_LOGP>  (1) 
3.9021869143333325

>  <JCHEM_MDDR_LIKE_RULE>  (1) 
1

>  <JCHEM_NUMBER_OF_RINGS>  (1) 
3

>  <JCHEM_PHYSIOLOGICAL_CHARGE>  (1) 
0

>  <JCHEM_PKA_STRONGEST_ACIDIC>  (1) 
14.914537666911102

>  <JCHEM_PKA_STRONGEST_BASIC>  (1) 
-2.8361812244930835

>  <JCHEM_POLAR_SURFACE_AREA>  (1) 
72.83

>  <JCHEM_REFRACTIVITY>  (1) 
113.18239999999999

>  <JCHEM_ROTATABLE_BOND_COUNT>  (1) 
7

>  <JCHEM_RULE_OF_FIVE>  (1) 
1

>  <JCHEM_TRADITIONAL_IUPAC>  (1) 
lovastatin

>  <JCHEM_VEBER_RULE>  (1) 
0

>  <MOLECULAR_WEIGHT>  (1) 
404.5396

>  <PRODUCTS>  (1) 
Act Lovastatin; Advicor; Altoprev; Apo-lovastatin - Tab 20mg; Apo-lovastatin - Tab 40mg; Ava-lovastatin; Dom-lovastatin; Lovastatin; Lovastatin-20; Lovastatin-40; Mevacor; Mylan-lovastatin; Nu-lovastatin Tablets; PHL-lovastatin; PMS-lovastatin; Pro-lovastatin; Ran-lovastatin; Ratio-lovastatin; Riva-lovastatin; Sandoz Lovastatin; Teva-lovastatin

>  <SECONDARY_ACCESSION_NUMBERS>  (1) 
APRD00370

>  <SMILES>  (1) 
[H][C@]12[C@H](C[C@@H](C)C=C1C=C[C@H](C)[C@@H]2CC[C@@H]1C[C@@H](O)CC(=O)O1)OC(=O)[C@@H](C)CC

>  <SYNONYMS>  (1) 
6-alpha-methylcompactin; 6Î±-methylcompactin; Lovastatina; Lovastatine; Lovastatinum

$$$$
