739
     RDKit          2D

 50 53  0  0  1  0  0  0  0  0999 V2000
    7.4805    0.5950    0.0000 S   0  0  0  0  0  0  0  0  0  0  0  0
    5.2819   -1.0729    0.0000 O   0  0  0  0  0  0  0  0  0  0  0  0
    4.0907    0.0663    0.0000 O   0  0  0  0  0  0  0  0  0  0  0  0
    7.1834   -2.1376    0.0000 O   0  0  0  0  0  0  0  0  0  0  0  0
    8.5424   -1.6960    0.0000 O   0  0  0  0  0  0  0  0  0  0  0  0
    6.6959   -0.4849    0.0000 N   0  0  0  0  0  0  0  0  0  0  0  0
    5.2819    0.9280    0.0000 N   0  0  0  0  0  0  0  0  0  0  0  0
    4.6784    2.1187    0.0000 N   0  0  0  0  0  0  0  0  0  0  0  0
    6.6959    0.3401    0.0000 C   0  0  0  0  0  0  0  0  0  0  0  0
    5.8640    0.3435    0.0000 C   0  0  0  0  0  0  0  0  0  0  0  0
    7.4805   -0.7399    0.0000 C   0  0  0  0  0  0  0  0  0  0  0  0
    7.9654   -0.0724    0.0000 C   0  0  0  0  0  0  0  0  0  0  0  0
    5.8640   -0.4883    0.0000 C   0  0  0  0  0  0  0  0  0  0  0  0
    5.4126    1.7427    0.0000 C   0  0  0  0  0  0  0  0  0  0  0  0
    4.4668    0.8007    0.0000 C   0  0  0  0  0  0  0  0  0  0  0  0
    4.0938    1.5365    0.0000 C   0  0  0  0  0  0  0  0  0  0  0  0
    8.6329   -0.5574    0.0000 C   0  0  0  0  0  0  0  0  0  0  0  0
    8.6329    0.4125    0.0000 C   0  0  0  0  0  0  0  0  0  0  0  0
    7.7355   -1.5245    0.0000 C   0  0  0  0  0  0  0  0  0  0  0  0
    6.2272    1.6119    0.0000 C   0  0  0  0  0  0  0  0  0  0  0  0
    5.7886    2.4769    0.0000 C   0  0  0  0  0  0  0  0  0  0  0  0
    3.2791    1.6673    0.0000 C   0  0  0  0  0  0  0  0  0  0  0  0
    2.7586    1.0272    0.0000 C   0  0  0  0  0  0  0  0  0  0  0  0
    2.9851    2.4381    0.0000 C   0  0  0  0  0  0  0  0  0  0  0  0
    1.9440    1.1579    0.0000 C   0  0  0  0  0  0  0  0  0  0  0  0
    2.1705    2.5688    0.0000 C   0  0  0  0  0  0  0  0  0  0  0  0
    1.6500    1.9287    0.0000 C   0  0  0  0  0  0  0  0  0  0  0  0
    0.0000    0.0000    0.0000 H   0  0  0  0  0  0  0  0  0  0  0  0
    0.0000    0.0000    0.0000 H   0  0  0  0  0  0  0  0  0  0  0  0
    0.0000    0.0000    0.0000 H   0  0  0  0  0  0  0  0  0  0  0  0
    0.0000    0.0000    0.0000 H   0  0  0  0  0  0  0  0  0  0  0  0
    0.0000    0.0000    0.0000 H   0  0  0  0  0  0  0  0  0  0  0  0
    0.0000    0.0000    0.0000 H   0  0  0  0  0  0  0  0  0  0  0  0
    0.0000    0.0000    0.0000 H   0  0  0  0  0  0  0  0  0  0  0  0
    0.0000    0.0000    0.0000 H   0  0  0  0  0  0  0  0  0  0  0  0
    0.0000    0.0000    0.0000 H   0  0  0  0  0  0  0  0  0  0  0  0
    0.0000    0.0000    0.0000 H   0  0  0  0  0  0  0  0  0  0  0  0
    0.0000    0.0000    0.0000 H   0  0  0  0  0  0  0  0  0  0  0  0
    0.0000    0.0000    0.0000 H   0  0  0  0  0  0  0  0  0  0  0  0
    0.0000    0.0000    0.0000 H   0  0  0  0  0  0  0  0  0  0  0  0
    0.0000    0.0000    0.0000 H   0  0  0  0  0  0  0  0  0  0  0  0
    0.0000    0.0000    0.0000 H   0  0  0  0  0  0  0  0  0  0  0  0
    0.0000    0.0000    0.0000 H   0  0  0  0  0  0  0  0  0  0  0  0
    0.0000    0.0000    0.0000 H   0  0  0  0  0  0  0  0  0  0  0  0
    0.0000    0.0000    0.0000 H   0  0  0  0  0  0  0  0  0  0  0  0
    0.0000    0.0000    0.0000 H   0  0  0  0  0  0  0  0  0  0  0  0
    0.0000    0.0000    0.0000 H   0  0  0  0  0  0  0  0  0  0  0  0
    0.0000    0.0000    0.0000 H   0  0  0  0  0  0  0  0  0  0  0  0
    0.0000    0.0000    0.0000 H   0  0  0  0  0  0  0  0  0  0  0  0
    0.0000    0.0000    0.0000 H   0  0  0  0  0  0  0  0  0  0  0  0
  1  9  1  0
  1 12  1  0
  2 13  2  0
  3 15  2  0
  4 19  1  0
  5 19  2  0
  6  9  1  0
  6 11  1  0
  6 13  1  0
 10  7  1  1
  7 14  1  0
  7 15  1  0
  8 14  1  0
  8 16  1  0
  9 10  1  0
 10 13  1  0
 11 12  1  0
 11 19  1  6
 12 17  1  0
 12 18  1  0
 14 20  1  0
 14 21  1  0
 15 16  1  0
 16 22  1  1
 22 23  2  0
 22 24  1  0
 23 25  1  0
 24 26  2  0
 25 27  2  0
 26 27  1  0
  4 28  1  0
  8 29  1  0
  9 30  1  6
 10 31  1  0
 11 32  1  0
 16 33  1  0
 17 34  1  0
 17 35  1  0
 17 36  1  0
 18 37  1  0
 18 38  1  0
 18 39  1  0
 20 40  1  0
 20 41  1  0
 20 42  1  0
 21 43  1  0
 21 44  1  0
 21 45  1  0
 23 46  1  0
 24 47  1  0
 25 48  1  0
 26 49  1  0
 27 50  1  0
M  END
>  <ALOGPS_LOGP>  (1) 
0.85

>  <ALOGPS_LOGS>  (1) 
-2.88

>  <ALOGPS_SOLUBILITY>  (1) 
5.12e-01 g/l

>  <DATABASE_ID>  (1) 
DB00739

>  <DATABASE_NAME>  (1) 
drugbank

>  <DRUGBANK_ID>  (1) 
DB00739

>  <DRUG_GROUPS>  (1) 
approved; vet_approved; withdrawn

>  <EXACT_MASS>  (1) 
389.140926929

>  <FORMULA>  (1) 
C19H23N3O4S

>  <GENERIC_NAME>  (1) 
Hetacillin

>  <INCHI_IDENTIFIER>  (1) 
InChI=1S/C19H23N3O4S/c1-18(2)13(17(25)26)21-15(24)12(16(21)27-18)22-14(23)11(20-19(22,3)4)10-8-6-5-7-9-10/h5-9,11-13,16,20H,1-4H3,(H,25,26)/t11-,12-,13+,16-/m1/s1

>  <INCHI_KEY>  (1) 
DXVUYOAEDJXBPY-NFFDBFGFSA-N

>  <INTERNATIONAL_BRANDS>  (1) 
Natacillin; Versapen

>  <JCHEM_ACCEPTOR_COUNT>  (1) 
5

>  <JCHEM_AVERAGE_POLARIZABILITY>  (1) 
39.58154278946702

>  <JCHEM_BIOAVAILABILITY>  (1) 
1

>  <JCHEM_DONOR_COUNT>  (1) 
2

>  <JCHEM_FORMAL_CHARGE>  (1) 
0

>  <JCHEM_GHOSE_FILTER>  (1) 
0

>  <JCHEM_IUPAC>  (1) 
(2S,5R,6R)-6-[(4R)-2,2-dimethyl-5-oxo-4-phenylimidazolidin-1-yl]-3,3-dimethyl-7-oxo-4-thia-1-azabicyclo[3.2.0]heptane-2-carboxylic acid

>  <JCHEM_LOGP>  (1) 
-0.015010228405816369

>  <JCHEM_MDDR_LIKE_RULE>  (1) 
0

>  <JCHEM_NUMBER_OF_RINGS>  (1) 
4

>  <JCHEM_PHYSIOLOGICAL_CHARGE>  (1) 
-1

>  <JCHEM_PKA>  (1) 
14.993524451963172

>  <JCHEM_PKA_STRONGEST_ACIDIC>  (1) 
3.626005434143019

>  <JCHEM_PKA_STRONGEST_BASIC>  (1) 
5.474500567056694

>  <JCHEM_POLAR_SURFACE_AREA>  (1) 
89.94999999999999

>  <JCHEM_REFRACTIVITY>  (1) 
99.89940000000003

>  <JCHEM_ROTATABLE_BOND_COUNT>  (1) 
3

>  <JCHEM_RULE_OF_FIVE>  (1) 
1

>  <JCHEM_TRADITIONAL_IUPAC>  (1) 
hetacillin

>  <JCHEM_VEBER_RULE>  (1) 
0

>  <MOLECULAR_WEIGHT>  (1) 
389.469

>  <SALTS>  (1) 
Hetacillin Potassium

>  <SECONDARY_ACCESSION_NUMBERS>  (1) 
APRD01012

>  <SMILES>  (1) 
[H][C@]12SC(C)(C)[C@@H](N1C(=O)[C@H]2N1C(=O)[C@H](NC1(C)C)C1=CC=CC=C1)C(O)=O

>  <SYNONYMS>  (1) 
Hetacilina; Hetacillin; HÃ©tacilline; Hetacillinum; Phenazacillin

$$$$
