1775
     RDKit          2D

 31 33  0  0  0  0  0  0  0  0999 V2000
    3.5022    1.7788    0.0000 O   0  0  0  0  0  0  0  0  0  0  0  0
    6.2311    0.7855    0.0000 O   0  0  0  0  0  0  0  0  0  0  0  0
    4.8988    0.1642    0.0000 N   0  0  0  0  0  0  0  0  0  0  0  0
    4.9453    1.4983    0.0000 N   0  0  0  0  0  0  0  0  0  0  0  0
    4.1235    0.4463    0.0000 C   0  0  0  0  0  0  0  0  0  0  0  0
    3.8414   -0.3289    0.0000 C   0  0  0  0  0  0  0  0  0  0  0  0
    3.2990    0.4751    0.0000 C   0  0  0  0  0  0  0  0  0  0  0  0
    4.1523    1.2708    0.0000 C   0  0  0  0  0  0  0  0  0  0  0  0
    5.4066    0.8143    0.0000 C   0  0  0  0  0  0  0  0  0  0  0  0
    3.1268   -0.7414    0.0000 C   0  0  0  0  0  0  0  0  0  0  0  0
    2.9117    1.2036    0.0000 C   0  0  0  0  0  0  0  0  0  0  0  0
    4.5558   -0.7414    0.0000 C   0  0  0  0  0  0  0  0  0  0  0  0
    2.8618   -0.2244    0.0000 C   0  0  0  0  0  0  0  0  0  0  0  0
    2.0872    1.2324    0.0000 C   0  0  0  0  0  0  0  0  0  0  0  0
    3.1268   -1.5664    0.0000 C   0  0  0  0  0  0  0  0  0  0  0  0
    4.5558   -1.5664    0.0000 C   0  0  0  0  0  0  0  0  0  0  0  0
    2.0373   -0.1957    0.0000 C   0  0  0  0  0  0  0  0  0  0  0  0
    1.6500    0.5327    0.0000 C   0  0  0  0  0  0  0  0  0  0  0  0
    3.8414   -1.9789    0.0000 C   0  0  0  0  0  0  0  0  0  0  0  0
    0.0000    0.0000    0.0000 H   0  0  0  0  0  0  0  0  0  0  0  0
    0.0000    0.0000    0.0000 H   0  0  0  0  0  0  0  0  0  0  0  0
    0.0000    0.0000    0.0000 H   0  0  0  0  0  0  0  0  0  0  0  0
    0.0000    0.0000    0.0000 H   0  0  0  0  0  0  0  0  0  0  0  0
    0.0000    0.0000    0.0000 H   0  0  0  0  0  0  0  0  0  0  0  0
    0.0000    0.0000    0.0000 H   0  0  0  0  0  0  0  0  0  0  0  0
    0.0000    0.0000    0.0000 H   0  0  0  0  0  0  0  0  0  0  0  0
    0.0000    0.0000    0.0000 H   0  0  0  0  0  0  0  0  0  0  0  0
    0.0000    0.0000    0.0000 H   0  0  0  0  0  0  0  0  0  0  0  0
    0.0000    0.0000    0.0000 H   0  0  0  0  0  0  0  0  0  0  0  0
    0.0000    0.0000    0.0000 H   0  0  0  0  0  0  0  0  0  0  0  0
    0.0000    0.0000    0.0000 H   0  0  0  0  0  0  0  0  0  0  0  0
  1  8  2  0
  2  9  2  0
  3  5  1  0
  3  9  1  0
  4  8  1  0
  4  9  1  0
  5  6  1  0
  5  7  1  0
  5  8  1  0
  6 10  2  0
  6 12  1  0
  7 11  2  0
  7 13  1  0
 10 15  1  0
 11 14  1  0
 12 16  2  0
 13 17  2  0
 14 18  2  0
 15 19  2  0
 16 19  1  0
 17 18  1  0
  3 20  1  0
  4 21  1  0
 10 22  1  0
 11 23  1  0
 12 24  1  0
 13 25  1  0
 14 26  1  0
 15 27  1  0
 16 28  1  0
 17 29  1  0
 18 30  1  0
 19 31  1  0
M  END
>  <ALOGPS_LOGP>  (1) 
2.26

>  <ALOGPS_LOGS>  (1) 
-3.55

>  <ALOGPS_SOLUBILITY>  (1) 
7.11e-02 g/l

>  <DATABASE_ID>  (1) 
DB00252

>  <DATABASE_NAME>  (1) 
drugbank

>  <DRUGBANK_ID>  (1) 
DB00252

>  <DRUG_GROUPS>  (1) 
approved; vet_approved

>  <EXACT_MASS>  (1) 
252.089877638

>  <FORMULA>  (1) 
C15H12N2O2

>  <GENERIC_NAME>  (1) 
Phenytoin

>  <INCHI_IDENTIFIER>  (1) 
InChI=1S/C15H12N2O2/c18-13-15(17-14(19)16-13,11-7-3-1-4-8-11)12-9-5-2-6-10-12/h1-10H,(H2,16,17,18,19)

>  <INCHI_KEY>  (1) 
CXOFVDLJLONNDW-UHFFFAOYSA-N

>  <INTERNATIONAL_BRANDS>  (1) 
Epanutin; Eptoin

>  <JCHEM_ACCEPTOR_COUNT>  (1) 
2

>  <JCHEM_AVERAGE_POLARIZABILITY>  (1) 
25.481526782246732

>  <JCHEM_BIOAVAILABILITY>  (1) 
1

>  <JCHEM_DONOR_COUNT>  (1) 
2

>  <JCHEM_FORMAL_CHARGE>  (1) 
0

>  <JCHEM_GHOSE_FILTER>  (1) 
1

>  <JCHEM_IUPAC>  (1) 
5,5-diphenylimidazolidine-2,4-dione

>  <JCHEM_LOGP>  (1) 
2.1479203806666667

>  <JCHEM_MDDR_LIKE_RULE>  (1) 
0

>  <JCHEM_NUMBER_OF_RINGS>  (1) 
3

>  <JCHEM_PHYSIOLOGICAL_CHARGE>  (1) 
0

>  <JCHEM_PKA>  (1) 
14.714766209042523

>  <JCHEM_PKA_STRONGEST_ACIDIC>  (1) 
9.466258048092149

>  <JCHEM_PKA_STRONGEST_BASIC>  (1) 
-9.048670716437757

>  <JCHEM_POLAR_SURFACE_AREA>  (1) 
58.2

>  <JCHEM_REFRACTIVITY>  (1) 
70.18230000000003

>  <JCHEM_ROTATABLE_BOND_COUNT>  (1) 
2

>  <JCHEM_RULE_OF_FIVE>  (1) 
1

>  <JCHEM_TRADITIONAL_IUPAC>  (1) 
silantin

>  <JCHEM_VEBER_RULE>  (1) 
0

>  <MOLECULAR_WEIGHT>  (1) 
252.268

>  <PRODUCTS>  (1) 
Apo-phenytoin Sodium; Dilantin; Dilantin Infatabs; Dilantin Inj 50mg/ml; Dilantin W Phenobarbital 15mg; Dilantin W Phenobarbital 30mg Cap; Dilantin-125; Dilantin-125 Suspension; Dilantin-30 Suspension; Extended Phenytoin Sodium; Novo-phenytoin Cap 100mg; Phenytek; Phenytoin; Phenytoin ER; Phenytoin Infatabs; Phenytoin Sodium; Phenytoin Sodium Extended; Phenytoin Sodium Inj 50mg/ml USP; Phenytoin Sodium Injection USP; Phenytoin Sodium Injection, USP; Taro-phenytoin; Tremytoine Inj 50mg/ml

>  <SALTS>  (1) 
Phenytoin sodium

>  <SECONDARY_ACCESSION_NUMBERS>  (1) 
APRD00241

>  <SMILES>  (1) 
O=C1NC(=O)C(N1)(C1=CC=CC=C1)C1=CC=CC=C1

>  <SYNONYMS>  (1) 
5,5-Diphenyl-imidazolidine-2,4-dione; 5,5-diphenylimidazolidine-2,4-dione; 5,5-diphenyltetrahydro-1H-2,4-imidazoledione	; Diphenylhydantoin; Fenitoina; Phenytoine; Phenytoinum

$$$$
