696
     RDKit          2D

 78 85  0  0  1  0  0  0  0  0999 V2000
    3.6245    0.4404    0.0000 O   0  0  0  0  0  0  0  0  0  0  0  0
    2.7811    0.9170    0.0000 O   0  0  0  0  0  0  0  0  0  0  0  0
    3.7828    3.7179    0.0000 O   0  0  0  0  0  0  0  0  0  0  0  0
    5.6557    1.0731    0.0000 O   0  0  0  0  0  0  0  0  0  0  0  0
    4.4339   -1.3764    0.0000 O   0  0  0  0  0  0  0  0  0  0  0  0
    2.9473    2.5586    0.0000 N   0  0  0  0  0  0  0  0  0  0  0  0
    4.2860    1.5939    0.0000 N   0  0  0  0  0  0  0  0  0  0  0  0
    5.1436   -0.1361    0.0000 N   0  0  0  0  0  0  0  0  0  0  0  0
    7.3480   -1.3766    0.0000 N   0  0  0  0  0  0  0  0  0  0  0  0
    8.3230   -4.7727    0.0000 N   0  0  0  0  0  0  0  0  0  0  0  0
    2.8642    1.7378    0.0000 C   0  0  0  0  0  0  0  0  0  0  0  0
    3.5335    1.2554    0.0000 C   0  0  0  0  0  0  0  0  0  0  0  0
    2.0622    1.5663    0.0000 C   0  0  0  0  0  0  0  0  0  0  0  0
    4.3689    2.4147    0.0000 C   0  0  0  0  0  0  0  0  0  0  0  0
    2.1959    2.8873    0.0000 C   0  0  0  0  0  0  0  0  0  0  0  0
    1.6500    2.2753    0.0000 C   0  0  0  0  0  0  0  0  0  0  0  0
    4.4275    0.2737    0.0000 C   0  0  0  0  0  0  0  0  0  0  0  0
    3.6997    2.8970    0.0000 C   0  0  0  0  0  0  0  0  0  0  0  0
    4.8355    0.9851    0.0000 C   0  0  0  0  0  0  0  0  0  0  0  0
    5.1214    2.7532    0.0000 C   0  0  0  0  0  0  0  0  0  0  0  0
    4.2591   -0.5340    0.0000 C   0  0  0  0  0  0  0  0  0  0  0  0
    5.8628   -1.3708    0.0000 C   0  0  0  0  0  0  0  0  0  0  0  0
    7.3347   -2.2359    0.0000 C   0  0  0  0  0  0  0  0  0  0  0  0
    5.1468   -0.9611    0.0000 C   0  0  0  0  0  0  0  0  0  0  0  0
    5.2044    3.5740    0.0000 C   0  0  0  0  0  0  0  0  0  0  0  0
    6.6070   -0.9412    0.0000 C   0  0  0  0  0  0  0  0  0  0  0  0
    6.6202   -2.6484    0.0000 C   0  0  0  0  0  0  0  0  0  0  0  0
    8.0492   -2.6484    0.0000 C   0  0  0  0  0  0  0  0  0  0  0  0
    5.8695   -2.2302    0.0000 C   0  0  0  0  0  0  0  0  0  0  0  0
    6.6202   -3.4734    0.0000 C   0  0  0  0  0  0  0  0  0  0  0  0
    8.0492   -3.4734    0.0000 C   0  0  0  0  0  0  0  0  0  0  0  0
    7.3347   -3.8859    0.0000 C   0  0  0  0  0  0  0  0  0  0  0  0
    8.0672   -0.9724    0.0000 C   0  0  0  0  0  0  0  0  0  0  0  0
    5.9569    3.9125    0.0000 C   0  0  0  0  0  0  0  0  0  0  0  0
    4.5351    4.0563    0.0000 C   0  0  0  0  0  0  0  0  0  0  0  0
    7.3480   -4.7452    0.0000 C   0  0  0  0  0  0  0  0  0  0  0  0
    8.6572   -4.0238    0.0000 C   0  0  0  0  0  0  0  0  0  0  0  0
    5.8695   -3.8915    0.0000 C   0  0  0  0  0  0  0  0  0  0  0  0
    6.6070   -5.1805    0.0000 C   0  0  0  0  0  0  0  0  0  0  0  0
    6.0399    4.7333    0.0000 C   0  0  0  0  0  0  0  0  0  0  0  0
    4.6182    4.8772    0.0000 C   0  0  0  0  0  0  0  0  0  0  0  0
    5.8628   -4.7508    0.0000 C   0  0  0  0  0  0  0  0  0  0  0  0
    5.3706    5.2157    0.0000 C   0  0  0  0  0  0  0  0  0  0  0  0
    0.0000    0.0000    0.0000 H   0  0  0  0  0  0  0  0  0  0  0  0
    0.0000    0.0000    0.0000 H   0  0  0  0  0  0  0  0  0  0  0  0
    0.0000    0.0000    0.0000 H   0  0  0  0  0  0  0  0  0  0  0  0
    0.0000    0.0000    0.0000 H   0  0  0  0  0  0  0  0  0  0  0  0
    0.0000    0.0000    0.0000 H   0  0  0  0  0  0  0  0  0  0  0  0
    0.0000    0.0000    0.0000 H   0  0  0  0  0  0  0  0  0  0  0  0
    0.0000    0.0000    0.0000 H   0  0  0  0  0  0  0  0  0  0  0  0
    0.0000    0.0000    0.0000 H   0  0  0  0  0  0  0  0  0  0  0  0
    0.0000    0.0000    0.0000 H   0  0  0  0  0  0  0  0  0  0  0  0
    0.0000    0.0000    0.0000 H   0  0  0  0  0  0  0  0  0  0  0  0
    0.0000    0.0000    0.0000 H   0  0  0  0  0  0  0  0  0  0  0  0
    0.0000    0.0000    0.0000 H   0  0  0  0  0  0  0  0  0  0  0  0
    0.0000    0.0000    0.0000 H   0  0  0  0  0  0  0  0  0  0  0  0
    0.0000    0.0000    0.0000 H   0  0  0  0  0  0  0  0  0  0  0  0
    0.0000    0.0000    0.0000 H   0  0  0  0  0  0  0  0  0  0  0  0
    0.0000    0.0000    0.0000 H   0  0  0  0  0  0  0  0  0  0  0  0
    0.0000    0.0000    0.0000 H   0  0  0  0  0  0  0  0  0  0  0  0
    0.0000    0.0000    0.0000 H   0  0  0  0  0  0  0  0  0  0  0  0
    0.0000    0.0000    0.0000 H   0  0  0  0  0  0  0  0  0  0  0  0
    0.0000    0.0000    0.0000 H   0  0  0  0  0  0  0  0  0  0  0  0
    0.0000    0.0000    0.0000 H   0  0  0  0  0  0  0  0  0  0  0  0
    0.0000    0.0000    0.0000 H   0  0  0  0  0  0  0  0  0  0  0  0
    0.0000    0.0000    0.0000 H   0  0  0  0  0  0  0  0  0  0  0  0
    0.0000    0.0000    0.0000 H   0  0  0  0  0  0  0  0  0  0  0  0
    0.0000    0.0000    0.0000 H   0  0  0  0  0  0  0  0  0  0  0  0
    0.0000    0.0000    0.0000 H   0  0  0  0  0  0  0  0  0  0  0  0
    0.0000    0.0000    0.0000 H   0  0  0  0  0  0  0  0  0  0  0  0
    0.0000    0.0000    0.0000 H   0  0  0  0  0  0  0  0  0  0  0  0
    0.0000    0.0000    0.0000 H   0  0  0  0  0  0  0  0  0  0  0  0
    0.0000    0.0000    0.0000 H   0  0  0  0  0  0  0  0  0  0  0  0
    0.0000    0.0000    0.0000 H   0  0  0  0  0  0  0  0  0  0  0  0
    0.0000    0.0000    0.0000 H   0  0  0  0  0  0  0  0  0  0  0  0
    0.0000    0.0000    0.0000 H   0  0  0  0  0  0  0  0  0  0  0  0
    0.0000    0.0000    0.0000 H   0  0  0  0  0  0  0  0  0  0  0  0
    0.0000    0.0000    0.0000 H   0  0  0  0  0  0  0  0  0  0  0  0
  1 12  1  0
  1 17  1  0
 12  2  1  6
  3 18  2  0
  4 19  2  0
  5 24  2  0
  6 11  1  0
  6 15  1  0
  6 18  1  0
  7 12  1  0
  7 14  1  0
  7 19  1  0
 17  8  1  6
  8 24  1  0
  9 23  1  0
  9 26  1  0
  9 33  1  0
 10 36  1  0
 10 37  1  0
 11 12  1  0
 11 13  1  0
 13 16  1  0
 14 18  1  0
 14 20  1  1
 15 16  1  0
 17 19  1  0
 17 21  1  0
 20 25  1  0
 22 24  1  1
 22 26  1  0
 22 29  1  0
 23 27  1  0
 23 28  1  0
 25 34  2  0
 25 35  1  0
 27 29  2  0
 27 30  1  0
 28 31  1  0
 30 32  2  0
 30 38  1  0
 31 32  1  0
 31 37  2  0
 32 36  1  0
 34 40  1  0
 35 41  2  0
 36 39  2  0
 38 42  2  0
 39 42  1  0
 40 43  2  0
 41 43  1  0
  2 44  1  0
  8 45  1  0
 10 46  1  0
 11 47  1  1
 13 48  1  0
 13 49  1  0
 14 50  1  0
 15 51  1  0
 15 52  1  0
 16 53  1  0
 16 54  1  0
 20 55  1  0
 20 56  1  0
 21 57  1  0
 21 58  1  0
 21 59  1  0
 22 60  1  0
 23 61  1  1
 26 62  1  0
 26 63  1  0
 28 64  1  0
 28 65  1  0
 29 66  1  0
 33 67  1  0
 33 68  1  0
 33 69  1  0
 34 70  1  0
 35 71  1  0
 37 72  1  0
 38 73  1  0
 39 74  1  0
 40 75  1  0
 41 76  1  0
 42 77  1  0
 43 78  1  0
M  END
>  <ALOGPS_LOGP>  (1) 
2.95

>  <ALOGPS_LOGS>  (1) 
-3.42

>  <ALOGPS_SOLUBILITY>  (1) 
2.23e-01 g/l

>  <DATABASE_ID>  (1) 
DB00696

>  <DATABASE_NAME>  (1) 
drugbank

>  <DRUGBANK_ID>  (1) 
DB00696

>  <DRUG_GROUPS>  (1) 
approved

>  <EXACT_MASS>  (1) 
581.263819255

>  <FORMULA>  (1) 
C33H35N5O5

>  <GENERIC_NAME>  (1) 
Ergotamine

>  <INCHI_IDENTIFIER>  (1) 
InChI=1S/C33H35N5O5/c1-32(35-29(39)21-15-23-22-10-6-11-24-28(22)20(17-34-24)16-25(23)36(2)18-21)31(41)38-26(14-19-8-4-3-5-9-19)30(40)37-13-7-12-27(37)33(38,42)43-32/h3-6,8-11,15,17,21,25-27,34,42H,7,12-14,16,18H2,1-2H3,(H,35,39)/t21-,25-,26+,27+,32-,33+/m1/s1

>  <INCHI_KEY>  (1) 
XCGSFFUVFURLIX-VFGNJEKYSA-N

>  <INTERNATIONAL_BRANDS>  (1) 
Anervan; Antimigraine; Enxak; Ergam; Ergo-Kranit; Gynaemine; Wigrettes

>  <JCHEM_ACCEPTOR_COUNT>  (1) 
6

>  <JCHEM_AVERAGE_POLARIZABILITY>  (1) 
61.68506242853522

>  <JCHEM_BIOAVAILABILITY>  (1) 
1

>  <JCHEM_DONOR_COUNT>  (1) 
3

>  <JCHEM_FORMAL_CHARGE>  (1) 
0

>  <JCHEM_GHOSE_FILTER>  (1) 
0

>  <JCHEM_IUPAC>  (1) 
(4R,7R)-N-[(1S,2S,4R,7S)-7-benzyl-2-hydroxy-4-methyl-5,8-dioxo-3-oxa-6,9-diazatricyclo[7.3.0.0²,⁶]dodecan-4-yl]-6-methyl-6,11-diazatetracyclo[7.6.1.0²,⁷.0¹²,¹⁶]hexadeca-1(16),2,9,12,14-pentaene-4-carboxamide

>  <JCHEM_LOGP>  (1) 
2.597697310346601

>  <JCHEM_MDDR_LIKE_RULE>  (1) 
0

>  <JCHEM_NUMBER_OF_RINGS>  (1) 
8

>  <JCHEM_PHYSIOLOGICAL_CHARGE>  (1) 
1

>  <JCHEM_PKA>  (1) 
11.635502175693672

>  <JCHEM_PKA_STRONGEST_ACIDIC>  (1) 
9.695263245586666

>  <JCHEM_PKA_STRONGEST_BASIC>  (1) 
7.780484014775068

>  <JCHEM_POLAR_SURFACE_AREA>  (1) 
118.20999999999998

>  <JCHEM_REFRACTIVITY>  (1) 
160.16779999999994

>  <JCHEM_ROTATABLE_BOND_COUNT>  (1) 
4

>  <JCHEM_RULE_OF_FIVE>  (1) 
0

>  <JCHEM_TRADITIONAL_IUPAC>  (1) 
ergomar

>  <JCHEM_VEBER_RULE>  (1) 
0

>  <MOLECULAR_WEIGHT>  (1) 
581.6615

>  <PRODUCTS>  (1) 
Bellergal Spacetabs; Bellergal Tab; Cafergot; Cafergot Pb Sup; Cafergot Pb Tab; Cafergot Sup; Cafergot Tab; Ergodryl Cap; Ergomar; Ergomar Slt 2mg; Ergomar Sublingual; Ergotamine; Ergotamine Tartrate and Caffeine; Gravergol Capsules; Megral Tabs; Migergot; Wigraine Suppositories; Wigraine Tab

>  <SALTS>  (1) 
Ergotamine Tartrate

>  <SECONDARY_ACCESSION_NUMBERS>  (1) 
APRD00677

>  <SMILES>  (1) 
[H][C@@]12CCCN1C(=O)[C@H](CC1=CC=CC=C1)N1C(=O)[C@](C)(NC(=O)[C@H]3CN(C)[C@]4([H])CC5=CNC6=CC=CC(=C56)C4=C3)O[C@@]21O

>  <SYNONYMS>  (1) 
Ergotamin; Ergotamina; Ergotamine; Ergotaminum

$$$$
