248
     RDKit          2D

 70 73  0  0  1  0  0  0  0  0999 V2000
    2.3788   -0.1484    0.0000 O   0  0  0  0  0  0  0  0  0  0  0  0
    1.6596    1.0864    0.0000 O   0  0  0  0  0  0  0  0  0  0  0  0
    5.2928   -0.1486    0.0000 N   0  0  0  0  0  0  0  0  0  0  0  0
    6.2679   -3.5446    0.0000 N   0  0  0  0  0  0  0  0  0  0  0  0
    3.0885    1.0919    0.0000 N   0  0  0  0  0  0  0  0  0  0  0  0
    2.3692    2.3266    0.0000 N   0  0  0  0  0  0  0  0  0  0  0  0
    4.5079    3.5723    0.0000 N   0  0  0  0  0  0  0  0  0  0  0  0
    4.5651   -1.4203    0.0000 C   0  0  0  0  0  0  0  0  0  0  0  0
    5.2796   -1.0078    0.0000 C   0  0  0  0  0  0  0  0  0  0  0  0
    3.8143   -1.0022    0.0000 C   0  0  0  0  0  0  0  0  0  0  0  0
    3.8077   -0.1429    0.0000 C   0  0  0  0  0  0  0  0  0  0  0  0
    5.9940   -1.4203    0.0000 C   0  0  0  0  0  0  0  0  0  0  0  0
    4.5519    0.2868    0.0000 C   0  0  0  0  0  0  0  0  0  0  0  0
    4.5651   -2.2453    0.0000 C   0  0  0  0  0  0  0  0  0  0  0  0
    5.2796   -2.6578    0.0000 C   0  0  0  0  0  0  0  0  0  0  0  0
    5.9940   -2.2453    0.0000 C   0  0  0  0  0  0  0  0  0  0  0  0
    6.0120    0.2556    0.0000 C   0  0  0  0  0  0  0  0  0  0  0  0
    3.0917    0.2669    0.0000 C   0  0  0  0  0  0  0  0  0  0  0  0
    5.2928   -3.5171    0.0000 C   0  0  0  0  0  0  0  0  0  0  0  0
    3.8143   -2.6635    0.0000 C   0  0  0  0  0  0  0  0  0  0  0  0
    6.6021   -2.7957    0.0000 C   0  0  0  0  0  0  0  0  0  0  0  0
    4.5519   -3.9525    0.0000 C   0  0  0  0  0  0  0  0  0  0  0  0
    3.8077   -3.5228    0.0000 C   0  0  0  0  0  0  0  0  0  0  0  0
    6.0215    1.0806    0.0000 C   0  0  0  0  0  0  0  0  0  0  0  0
    3.8014    1.5071    0.0000 C   0  0  0  0  0  0  0  0  0  0  0  0
    2.3725    1.5016    0.0000 C   0  0  0  0  0  0  0  0  0  0  0  0
    3.7981    2.3321    0.0000 C   0  0  0  0  0  0  0  0  0  0  0  0
    6.7407    1.4848    0.0000 C   0  0  0  0  0  0  0  0  0  0  0  0
    4.5110    2.7473    0.0000 C   0  0  0  0  0  0  0  0  0  0  0  0
    1.6532    2.7364    0.0000 C   0  0  0  0  0  0  0  0  0  0  0  0
    5.2208    3.9876    0.0000 C   0  0  0  0  0  0  0  0  0  0  0  0
    3.7918    3.9821    0.0000 C   0  0  0  0  0  0  0  0  0  0  0  0
    1.6500    3.5614    0.0000 C   0  0  0  0  0  0  0  0  0  0  0  0
    0.0000    0.0000    0.0000 H   0  0  0  0  0  0  0  0  0  0  0  0
    0.0000    0.0000    0.0000 H   0  0  0  0  0  0  0  0  0  0  0  0
    0.0000    0.0000    0.0000 H   0  0  0  0  0  0  0  0  0  0  0  0
    0.0000    0.0000    0.0000 H   0  0  0  0  0  0  0  0  0  0  0  0
    0.0000    0.0000    0.0000 H   0  0  0  0  0  0  0  0  0  0  0  0
    0.0000    0.0000    0.0000 H   0  0  0  0  0  0  0  0  0  0  0  0
    0.0000    0.0000    0.0000 H   0  0  0  0  0  0  0  0  0  0  0  0
    0.0000    0.0000    0.0000 H   0  0  0  0  0  0  0  0  0  0  0  0
    0.0000    0.0000    0.0000 H   0  0  0  0  0  0  0  0  0  0  0  0
    0.0000    0.0000    0.0000 H   0  0  0  0  0  0  0  0  0  0  0  0
    0.0000    0.0000    0.0000 H   0  0  0  0  0  0  0  0  0  0  0  0
    0.0000    0.0000    0.0000 H   0  0  0  0  0  0  0  0  0  0  0  0
    0.0000    0.0000    0.0000 H   0  0  0  0  0  0  0  0  0  0  0  0
    0.0000    0.0000    0.0000 H   0  0  0  0  0  0  0  0  0  0  0  0
    0.0000    0.0000    0.0000 H   0  0  0  0  0  0  0  0  0  0  0  0
    0.0000    0.0000    0.0000 H   0  0  0  0  0  0  0  0  0  0  0  0
    0.0000    0.0000    0.0000 H   0  0  0  0  0  0  0  0  0  0  0  0
    0.0000    0.0000    0.0000 H   0  0  0  0  0  0  0  0  0  0  0  0
    0.0000    0.0000    0.0000 H   0  0  0  0  0  0  0  0  0  0  0  0
    0.0000    0.0000    0.0000 H   0  0  0  0  0  0  0  0  0  0  0  0
    0.0000    0.0000    0.0000 H   0  0  0  0  0  0  0  0  0  0  0  0
    0.0000    0.0000    0.0000 H   0  0  0  0  0  0  0  0  0  0  0  0
    0.0000    0.0000    0.0000 H   0  0  0  0  0  0  0  0  0  0  0  0
    0.0000    0.0000    0.0000 H   0  0  0  0  0  0  0  0  0  0  0  0
    0.0000    0.0000    0.0000 H   0  0  0  0  0  0  0  0  0  0  0  0
    0.0000    0.0000    0.0000 H   0  0  0  0  0  0  0  0  0  0  0  0
    0.0000    0.0000    0.0000 H   0  0  0  0  0  0  0  0  0  0  0  0
    0.0000    0.0000    0.0000 H   0  0  0  0  0  0  0  0  0  0  0  0
    0.0000    0.0000    0.0000 H   0  0  0  0  0  0  0  0  0  0  0  0
    0.0000    0.0000    0.0000 H   0  0  0  0  0  0  0  0  0  0  0  0
    0.0000    0.0000    0.0000 H   0  0  0  0  0  0  0  0  0  0  0  0
    0.0000    0.0000    0.0000 H   0  0  0  0  0  0  0  0  0  0  0  0
    0.0000    0.0000    0.0000 H   0  0  0  0  0  0  0  0  0  0  0  0
    0.0000    0.0000    0.0000 H   0  0  0  0  0  0  0  0  0  0  0  0
    0.0000    0.0000    0.0000 H   0  0  0  0  0  0  0  0  0  0  0  0
    0.0000    0.0000    0.0000 H   0  0  0  0  0  0  0  0  0  0  0  0
    0.0000    0.0000    0.0000 H   0  0  0  0  0  0  0  0  0  0  0  0
  1 18  2  0
  2 26  2  0
  3  9  1  0
  3 13  1  0
  3 17  1  0
  4 19  1  0
  4 21  1  0
  5 18  1  0
  5 25  1  0
  5 26  1  0
  6 26  1  0
  6 30  1  0
  7 29  1  0
  7 31  1  0
  7 32  1  0
  8  9  1  0
  8 10  1  0
  8 14  1  0
  9 12  1  0
 10 11  1  0
 11 13  1  0
 11 18  1  1
 12 16  1  0
 14 15  2  0
 14 20  1  0
 15 16  1  0
 15 19  1  0
 16 21  2  0
 17 24  1  0
 19 22  2  0
 20 23  2  0
 22 23  1  0
 24 28  2  3
 25 27  1  0
 27 29  1  0
 30 33  1  0
  4 34  1  0
  6 35  1  0
  8 36  1  6
  9 37  1  1
 10 38  1  0
 10 39  1  0
 11 40  1  0
 12 41  1  0
 12 42  1  0
 13 43  1  0
 13 44  1  0
 17 45  1  0
 17 46  1  0
 20 47  1  0
 21 48  1  0
 22 49  1  0
 23 50  1  0
 24 51  1  0
 25 52  1  0
 25 53  1  0
 27 54  1  0
 27 55  1  0
 28 56  1  0
 28 57  1  0
 29 58  1  0
 29 59  1  0
 30 60  1  0
 30 61  1  0
 31 62  1  0
 31 63  1  0
 31 64  1  0
 32 65  1  0
 32 66  1  0
 32 67  1  0
 33 68  1  0
 33 69  1  0
 33 70  1  0
M  END
>  <ALOGPS_LOGP>  (1) 
2.97

>  <ALOGPS_LOGS>  (1) 
-3.85

>  <ALOGPS_SOLUBILITY>  (1) 
6.40e-02 g/l

>  <DATABASE_ID>  (1) 
DB00248

>  <DATABASE_NAME>  (1) 
drugbank

>  <DRUGBANK_ID>  (1) 
DB00248

>  <DRUG_GROUPS>  (1) 
approved

>  <EXACT_MASS>  (1) 
451.294725453

>  <FORMULA>  (1) 
C26H37N5O2

>  <GENERIC_NAME>  (1) 
Cabergoline

>  <INCHI_IDENTIFIER>  (1) 
InChI=1S/C26H37N5O2/c1-5-11-30-17-19(25(32)31(26(33)27-6-2)13-8-12-29(3)4)14-21-20-9-7-10-22-24(20)18(16-28-22)15-23(21)30/h5,7,9-10,16,19,21,23,28H,1,6,8,11-15,17H2,2-4H3,(H,27,33)/t19-,21-,23-/m1/s1

>  <INCHI_KEY>  (1) 
KORNTPPJEAJQIU-KJXAQDMKSA-N

>  <INTERNATIONAL_BRANDS>  (1) 
Cabaser

>  <JCHEM_ACCEPTOR_COUNT>  (1) 
4

>  <JCHEM_AVERAGE_POLARIZABILITY>  (1) 
52.495202152505456

>  <JCHEM_BIOAVAILABILITY>  (1) 
1

>  <JCHEM_DONOR_COUNT>  (1) 
2

>  <JCHEM_FORMAL_CHARGE>  (1) 
0

>  <JCHEM_GHOSE_FILTER>  (1) 
0

>  <JCHEM_IUPAC>  (1) 
1-[3-(dimethylamino)propyl]-3-ethyl-1-[(2R,4R,7R)-6-(prop-2-en-1-yl)-6,11-diazatetracyclo[7.6.1.0²,⁷.0¹²,¹⁶]hexadeca-1(16),9,12,14-tetraene-4-carbonyl]urea

>  <JCHEM_LOGP>  (1) 
2.5785162679999996

>  <JCHEM_MDDR_LIKE_RULE>  (1) 
1

>  <JCHEM_NUMBER_OF_RINGS>  (1) 
4

>  <JCHEM_PHYSIOLOGICAL_CHARGE>  (1) 
2

>  <JCHEM_PKA>  (1) 
17.065609828855507

>  <JCHEM_PKA_STRONGEST_ACIDIC>  (1) 
15.248915988620418

>  <JCHEM_PKA_STRONGEST_BASIC>  (1) 
9.320571036379302

>  <JCHEM_POLAR_SURFACE_AREA>  (1) 
71.67999999999999

>  <JCHEM_REFRACTIVITY>  (1) 
133.5029

>  <JCHEM_ROTATABLE_BOND_COUNT>  (1) 
8

>  <JCHEM_RULE_OF_FIVE>  (1) 
1

>  <JCHEM_TRADITIONAL_IUPAC>  (1) 
cabergoline

>  <JCHEM_VEBER_RULE>  (1) 
0

>  <MOLECULAR_WEIGHT>  (1) 
451.6043

>  <PRODUCTS>  (1) 
Act Cabergoline; Apo-cabergoline; Cabergoline; Dostinex

>  <SECONDARY_ACCESSION_NUMBERS>  (1) 
APRD00836

>  <SMILES>  (1) 
[H][C@@]12CC3=CNC4=CC=CC(=C34)[C@@]1([H])C[C@H](CN2CC=C)C(=O)N(CCCN(C)C)C(=O)NCC

>  <SYNONYMS>  (1) 
Cabergolina; Cabergolinum

$$$$
