219
     RDKit          2D

 59 60  0  0  1  0  0  0  0  0999 V2000
    1.9058    0.0957    0.0000 O   0  0  0  0  0  0  0  0  0  0  0  0
    3.9683   -0.6188    0.0000 O   0  0  0  0  0  0  0  0  0  0  0  0
    3.9683    0.8103    0.0000 O   0  0  0  0  0  0  0  0  0  0  0  0
    6.0309   -1.3332    0.0000 N   0  0  0  0  0  0  0  0  0  0  0  0
    2.7308    0.9207    0.0000 C   0  0  0  0  0  0  0  0  0  0  0  0
    2.0163    1.3332    0.0000 C   0  0  0  0  0  0  0  0  0  0  0  0
    3.4453    1.3332    0.0000 C   0  0  0  0  0  0  0  0  0  0  0  0
    2.7308    0.0957    0.0000 C   0  0  0  0  0  0  0  0  0  0  0  0
    2.0163    2.1582    0.0000 C   0  0  0  0  0  0  0  0  0  0  0  0
    3.4453    2.1582    0.0000 C   0  0  0  0  0  0  0  0  0  0  0  0
    2.7308    2.5708    0.0000 C   0  0  0  0  0  0  0  0  0  0  0  0
    2.7308   -0.7293    0.0000 C   0  0  0  0  0  0  0  0  0  0  0  0
    5.2059   -1.3332    0.0000 C   0  0  0  0  0  0  0  0  0  0  0  0
    3.5558    0.0957    0.0000 C   0  0  0  0  0  0  0  0  0  0  0  0
    6.0309   -2.1582    0.0000 C   0  0  0  0  0  0  0  0  0  0  0  0
    6.8559   -1.3332    0.0000 C   0  0  0  0  0  0  0  0  0  0  0  0
    4.7934   -0.6188    0.0000 C   0  0  0  0  0  0  0  0  0  0  0  0
    6.0309   -0.5082    0.0000 C   0  0  0  0  0  0  0  0  0  0  0  0
    3.4453   -1.1418    0.0000 C   0  0  0  0  0  0  0  0  0  0  0  0
    2.0163   -1.1418    0.0000 C   0  0  0  0  0  0  0  0  0  0  0  0
    5.3164   -2.5708    0.0000 C   0  0  0  0  0  0  0  0  0  0  0  0
    7.2684   -2.0478    0.0000 C   0  0  0  0  0  0  0  0  0  0  0  0
    3.4453   -1.9668    0.0000 C   0  0  0  0  0  0  0  0  0  0  0  0
    2.0163   -1.9668    0.0000 C   0  0  0  0  0  0  0  0  0  0  0  0
    2.7308   -2.3794    0.0000 C   0  0  0  0  0  0  0  0  0  0  0  0
    0.0000    0.0000    0.0000 H   0  0  0  0  0  0  0  0  0  0  0  0
    0.0000    0.0000    0.0000 H   0  0  0  0  0  0  0  0  0  0  0  0
    0.0000    0.0000    0.0000 H   0  0  0  0  0  0  0  0  0  0  0  0
    0.0000    0.0000    0.0000 H   0  0  0  0  0  0  0  0  0  0  0  0
    0.0000    0.0000    0.0000 H   0  0  0  0  0  0  0  0  0  0  0  0
    0.0000    0.0000    0.0000 H   0  0  0  0  0  0  0  0  0  0  0  0
    0.0000    0.0000    0.0000 H   0  0  0  0  0  0  0  0  0  0  0  0
    0.0000    0.0000    0.0000 H   0  0  0  0  0  0  0  0  0  0  0  0
    0.0000    0.0000    0.0000 H   0  0  0  0  0  0  0  0  0  0  0  0
    0.0000    0.0000    0.0000 H   0  0  0  0  0  0  0  0  0  0  0  0
    0.0000    0.0000    0.0000 H   0  0  0  0  0  0  0  0  0  0  0  0
    0.0000    0.0000    0.0000 H   0  0  0  0  0  0  0  0  0  0  0  0
    0.0000    0.0000    0.0000 H   0  0  0  0  0  0  0  0  0  0  0  0
    0.0000    0.0000    0.0000 H   0  0  0  0  0  0  0  0  0  0  0  0
    0.0000    0.0000    0.0000 H   0  0  0  0  0  0  0  0  0  0  0  0
    0.0000    0.0000    0.0000 H   0  0  0  0  0  0  0  0  0  0  0  0
    0.0000    0.0000    0.0000 H   0  0  0  0  0  0  0  0  0  0  0  0
    0.0000    0.0000    0.0000 H   0  0  0  0  0  0  0  0  0  0  0  0
    0.0000    0.0000    0.0000 H   0  0  0  0  0  0  0  0  0  0  0  0
    0.0000    0.0000    0.0000 H   0  0  0  0  0  0  0  0  0  0  0  0
    0.0000    0.0000    0.0000 H   0  0  0  0  0  0  0  0  0  0  0  0
    0.0000    0.0000    0.0000 H   0  0  0  0  0  0  0  0  0  0  0  0
    0.0000    0.0000    0.0000 H   0  0  0  0  0  0  0  0  0  0  0  0
    0.0000    0.0000    0.0000 H   0  0  0  0  0  0  0  0  0  0  0  0
    0.0000    0.0000    0.0000 H   0  0  0  0  0  0  0  0  0  0  0  0
    0.0000    0.0000    0.0000 H   0  0  0  0  0  0  0  0  0  0  0  0
    0.0000    0.0000    0.0000 H   0  0  0  0  0  0  0  0  0  0  0  0
    0.0000    0.0000    0.0000 H   0  0  0  0  0  0  0  0  0  0  0  0
    0.0000    0.0000    0.0000 H   0  0  0  0  0  0  0  0  0  0  0  0
    0.0000    0.0000    0.0000 H   0  0  0  0  0  0  0  0  0  0  0  0
    0.0000    0.0000    0.0000 H   0  0  0  0  0  0  0  0  0  0  0  0
    0.0000    0.0000    0.0000 H   0  0  0  0  0  0  0  0  0  0  0  0
    0.0000    0.0000    0.0000 H   0  0  0  0  0  0  0  0  0  0  0  0
    0.0000    0.0000    0.0000 H   0  0  0  0  0  0  0  0  0  0  0  0
  1  8  1  0
  2 14  1  0
  2 17  1  0
  3 14  2  0
  4 13  1  0
  4 15  1  0
  4 16  1  0
  4 18  1  0
  5  6  1  0
  5  7  1  0
  5  8  1  0
  6  9  1  0
  7 10  1  0
  8 12  1  0
  8 14  1  0
  9 11  1  0
 10 11  1  0
 12 19  2  0
 12 20  1  0
 13 17  1  0
 15 21  1  0
 16 22  1  0
 19 23  1  0
 20 24  2  0
 23 25  2  0
 24 25  1  0
  1 26  1  0
  5 27  1  0
  6 28  1  0
  6 29  1  0
  7 30  1  0
  7 31  1  0
  9 32  1  0
  9 33  1  0
 10 34  1  0
 10 35  1  0
 11 36  1  0
 11 37  1  0
 13 38  1  0
 13 39  1  0
 15 40  1  0
 15 41  1  0
 16 42  1  0
 16 43  1  0
 17 44  1  0
 17 45  1  0
 18 46  1  0
 18 47  1  0
 18 48  1  0
 19 49  1  0
 20 50  1  0
 21 51  1  0
 21 52  1  0
 21 53  1  0
 22 54  1  0
 22 55  1  0
 22 56  1  0
 23 57  1  0
 24 58  1  0
 25 59  1  0
M  CHG  1   4   1
M  END
>  <ALOGPS_LOGP>  (1) 
0.20

>  <ALOGPS_LOGS>  (1) 
-6.45

>  <ALOGPS_SOLUBILITY>  (1) 
1.36e-04 g/l

>  <DATABASE_ID>  (1) 
DB00219

>  <DATABASE_NAME>  (1) 
drugbank

>  <DRUGBANK_ID>  (1) 
DB00219

>  <DRUG_GROUPS>  (1) 
approved

>  <EXACT_MASS>  (1) 
348.253868959

>  <FORMULA>  (1) 
C21H34NO3

>  <GENERIC_NAME>  (1) 
Oxyphenonium

>  <INCHI_IDENTIFIER>  (1) 
InChI=1S/C21H34NO3/c1-4-22(3,5-2)16-17-25-20(23)21(24,18-12-8-6-9-13-18)19-14-10-7-11-15-19/h6,8-9,12-13,19,24H,4-5,7,10-11,14-17H2,1-3H3/q+1

>  <INCHI_KEY>  (1) 
GFRUPHOKLBPHTQ-UHFFFAOYSA-N

>  <INTERNATIONAL_BRANDS>  (1) 
A-Spasm; Antispasmin; Antrenex; Antrenyl; Atrenex; Spasmophen

>  <JCHEM_ACCEPTOR_COUNT>  (1) 
2

>  <JCHEM_AVERAGE_POLARIZABILITY>  (1) 
40.64711565047476

>  <JCHEM_BIOAVAILABILITY>  (1) 
1

>  <JCHEM_DONOR_COUNT>  (1) 
1

>  <JCHEM_FORMAL_CHARGE>  (1) 
1

>  <JCHEM_GHOSE_FILTER>  (1) 
1

>  <JCHEM_IUPAC>  (1) 
{2-[(2-cyclohexyl-2-hydroxy-2-phenylacetyl)oxy]ethyl}diethylmethylazanium

>  <JCHEM_LOGP>  (1) 
-0.19810528447174525

>  <JCHEM_MDDR_LIKE_RULE>  (1) 
0

>  <JCHEM_NUMBER_OF_RINGS>  (1) 
2

>  <JCHEM_PHYSIOLOGICAL_CHARGE>  (1) 
1

>  <JCHEM_PKA_STRONGEST_ACIDIC>  (1) 
11.534558822440351

>  <JCHEM_PKA_STRONGEST_BASIC>  (1) 
-4.31458397106459

>  <JCHEM_POLAR_SURFACE_AREA>  (1) 
46.53

>  <JCHEM_REFRACTIVITY>  (1) 
112.61250000000003

>  <JCHEM_ROTATABLE_BOND_COUNT>  (1) 
9

>  <JCHEM_RULE_OF_FIVE>  (1) 
1

>  <JCHEM_TRADITIONAL_IUPAC>  (1) 
methacin

>  <JCHEM_VEBER_RULE>  (1) 
0

>  <MOLECULAR_WEIGHT>  (1) 
348.4996

>  <SALTS>  (1) 
Oxyphenonium bromide

>  <SECONDARY_ACCESSION_NUMBERS>  (1) 
APRD00189

>  <SMILES>  (1) 
CC[N+](C)(CC)CCOC(=O)C(O)(C1CCCCC1)C1=CC=CC=C1

>  <SYNONYMS>  (1) 
Oxyphenonium cation; Oxyphenonium ion

$$$$
