952
     RDKit          2D

 48 50  0  0  0  0  0  0  0  0999 V2000
    3.0791   -0.5003    0.0000 S   0  0  0  0  0  0  0  0  0  0  0  0
    3.4916    0.2142    0.0000 O   0  0  0  0  0  0  0  0  0  0  0  0
    2.6665   -1.2148    0.0000 O   0  0  0  0  0  0  0  0  0  0  0  0
    8.2010    1.6912    0.0000 N   0  0  0  0  0  0  0  0  0  0  0  0
    7.4321   -1.9892    0.0000 N   0  0  0  0  0  0  0  0  0  0  0  0
    2.3645   -0.0878    0.0000 N   0  0  0  0  0  0  0  0  0  0  0  0
    7.6884    0.1228    0.0000 C   0  0  0  0  0  0  0  0  0  0  0  0
    8.4957    0.2930    0.0000 C   0  0  0  0  0  0  0  0  0  0  0  0
    7.1374    0.7369    0.0000 C   0  0  0  0  0  0  0  0  0  0  0  0
    8.7520    1.0771    0.0000 C   0  0  0  0  0  0  0  0  0  0  0  0
    7.3937    1.5211    0.0000 C   0  0  0  0  0  0  0  0  0  0  0  0
    7.4321   -0.6613    0.0000 C   0  0  0  0  0  0  0  0  0  0  0  0
    6.6515   -0.9128    0.0000 C   0  0  0  0  0  0  0  0  0  0  0  0
    7.9136   -1.3253    0.0000 C   0  0  0  0  0  0  0  0  0  0  0  0
    6.6515   -1.7378    0.0000 C   0  0  0  0  0  0  0  0  0  0  0  0
    8.4573    2.4754    0.0000 C   0  0  0  0  0  0  0  0  0  0  0  0
    5.9370   -0.5003    0.0000 C   0  0  0  0  0  0  0  0  0  0  0  0
    5.2224   -0.9128    0.0000 C   0  0  0  0  0  0  0  0  0  0  0  0
    5.9370   -2.1503    0.0000 C   0  0  0  0  0  0  0  0  0  0  0  0
    4.5080   -0.5003    0.0000 C   0  0  0  0  0  0  0  0  0  0  0  0
    5.2224   -1.7378    0.0000 C   0  0  0  0  0  0  0  0  0  0  0  0
    3.7935   -0.9128    0.0000 C   0  0  0  0  0  0  0  0  0  0  0  0
    1.6500   -0.5003    0.0000 C   0  0  0  0  0  0  0  0  0  0  0  0
    0.0000    0.0000    0.0000 H   0  0  0  0  0  0  0  0  0  0  0  0
    0.0000    0.0000    0.0000 H   0  0  0  0  0  0  0  0  0  0  0  0
    0.0000    0.0000    0.0000 H   0  0  0  0  0  0  0  0  0  0  0  0
    0.0000    0.0000    0.0000 H   0  0  0  0  0  0  0  0  0  0  0  0
    0.0000    0.0000    0.0000 H   0  0  0  0  0  0  0  0  0  0  0  0
    0.0000    0.0000    0.0000 H   0  0  0  0  0  0  0  0  0  0  0  0
    0.0000    0.0000    0.0000 H   0  0  0  0  0  0  0  0  0  0  0  0
    0.0000    0.0000    0.0000 H   0  0  0  0  0  0  0  0  0  0  0  0
    0.0000    0.0000    0.0000 H   0  0  0  0  0  0  0  0  0  0  0  0
    0.0000    0.0000    0.0000 H   0  0  0  0  0  0  0  0  0  0  0  0
    0.0000    0.0000    0.0000 H   0  0  0  0  0  0  0  0  0  0  0  0
    0.0000    0.0000    0.0000 H   0  0  0  0  0  0  0  0  0  0  0  0
    0.0000    0.0000    0.0000 H   0  0  0  0  0  0  0  0  0  0  0  0
    0.0000    0.0000    0.0000 H   0  0  0  0  0  0  0  0  0  0  0  0
    0.0000    0.0000    0.0000 H   0  0  0  0  0  0  0  0  0  0  0  0
    0.0000    0.0000    0.0000 H   0  0  0  0  0  0  0  0  0  0  0  0
    0.0000    0.0000    0.0000 H   0  0  0  0  0  0  0  0  0  0  0  0
    0.0000    0.0000    0.0000 H   0  0  0  0  0  0  0  0  0  0  0  0
    0.0000    0.0000    0.0000 H   0  0  0  0  0  0  0  0  0  0  0  0
    0.0000    0.0000    0.0000 H   0  0  0  0  0  0  0  0  0  0  0  0
    0.0000    0.0000    0.0000 H   0  0  0  0  0  0  0  0  0  0  0  0
    0.0000    0.0000    0.0000 H   0  0  0  0  0  0  0  0  0  0  0  0
    0.0000    0.0000    0.0000 H   0  0  0  0  0  0  0  0  0  0  0  0
    0.0000    0.0000    0.0000 H   0  0  0  0  0  0  0  0  0  0  0  0
    0.0000    0.0000    0.0000 H   0  0  0  0  0  0  0  0  0  0  0  0
  1  2  2  0
  1  3  2  0
  1  6  1  0
  1 22  1  0
  4 10  1  0
  4 11  1  0
  4 16  1  0
  5 14  1  0
  5 15  1  0
  6 23  1  0
  7  8  1  0
  7  9  1  0
  7 12  1  0
  8 10  1  0
  9 11  1  0
 12 13  1  0
 12 14  2  0
 13 15  2  0
 13 17  1  0
 15 19  1  0
 17 18  2  0
 18 20  1  0
 18 21  1  0
 19 21  2  0
 20 22  1  0
  5 24  1  0
  6 25  1  0
  7 26  1  0
  8 27  1  0
  8 28  1  0
  9 29  1  0
  9 30  1  0
 10 31  1  0
 10 32  1  0
 11 33  1  0
 11 34  1  0
 14 35  1  0
 16 36  1  0
 16 37  1  0
 16 38  1  0
 17 39  1  0
 19 40  1  0
 20 41  1  0
 20 42  1  0
 21 43  1  0
 22 44  1  0
 22 45  1  0
 23 46  1  0
 23 47  1  0
 23 48  1  0
M  END
>  <ALOGPS_LOGP>  (1) 
2.16

>  <ALOGPS_LOGS>  (1) 
-3.47

>  <ALOGPS_SOLUBILITY>  (1) 
1.14e-01 g/l

>  <DATABASE_ID>  (1) 
DB00952

>  <DATABASE_NAME>  (1) 
drugbank

>  <DRUGBANK_ID>  (1) 
DB00952

>  <DRUG_GROUPS>  (1) 
approved; investigational

>  <EXACT_MASS>  (1) 
335.166747749

>  <FORMULA>  (1) 
C17H25N3O2S

>  <GENERIC_NAME>  (1) 
Naratriptan

>  <INCHI_IDENTIFIER>  (1) 
InChI=1S/C17H25N3O2S/c1-18-23(21,22)10-7-13-3-4-17-15(11-13)16(12-19-17)14-5-8-20(2)9-6-14/h3-4,11-12,14,18-19H,5-10H2,1-2H3

>  <INCHI_KEY>  (1) 
AMKVXSZCKVJAGH-UHFFFAOYSA-N

>  <JCHEM_ACCEPTOR_COUNT>  (1) 
3

>  <JCHEM_AVERAGE_POLARIZABILITY>  (1) 
38.00236193067244

>  <JCHEM_BIOAVAILABILITY>  (1) 
1

>  <JCHEM_DONOR_COUNT>  (1) 
2

>  <JCHEM_FORMAL_CHARGE>  (1) 
0

>  <JCHEM_GHOSE_FILTER>  (1) 
1

>  <JCHEM_IUPAC>  (1) 
N-methyl-2-[3-(1-methylpiperidin-4-yl)-1H-indol-5-yl]ethane-1-sulfonamide

>  <JCHEM_LOGP>  (1) 
1.440624933

>  <JCHEM_MDDR_LIKE_RULE>  (1) 
0

>  <JCHEM_NUMBER_OF_RINGS>  (1) 
3

>  <JCHEM_PHYSIOLOGICAL_CHARGE>  (1) 
1

>  <JCHEM_PKA>  (1) 
17.113643722273398

>  <JCHEM_PKA_STRONGEST_ACIDIC>  (1) 
11.549356572949735

>  <JCHEM_PKA_STRONGEST_BASIC>  (1) 
9.182862337667046

>  <JCHEM_POLAR_SURFACE_AREA>  (1) 
65.2

>  <JCHEM_REFRACTIVITY>  (1) 
94.25720000000001

>  <JCHEM_ROTATABLE_BOND_COUNT>  (1) 
4

>  <JCHEM_RULE_OF_FIVE>  (1) 
1

>  <JCHEM_TRADITIONAL_IUPAC>  (1) 
naratriptan

>  <JCHEM_VEBER_RULE>  (1) 
0

>  <MOLECULAR_WEIGHT>  (1) 
335.464

>  <PRODUCTS>  (1) 
Amerge; Apo-naratriptan; Naratriptan; Naratriptan Hydrochloride; Sandoz Naratriptan; Teva-naratriptan

>  <SALTS>  (1) 
Naratriptan hydrochloride

>  <SECONDARY_ACCESSION_NUMBERS>  (1) 
APRD00220

>  <SMILES>  (1) 
CNS(=O)(=O)CCC1=CC2=C(NC=C2C2CCN(C)CC2)C=C1

$$$$
