[NO NAME]
     RDKit          2D

175180  0  0  1  0  0  0  0  0999 V2000
   12.8548   -2.6382    0.0000 O   0  0  0  0  0  0  0  0  0  0  0  0
   13.9726   -2.5226    0.0000 O   0  0  0  0  0  0  0  0  0  0  0  0
   10.1766   -3.9327    0.0000 O   0  0  0  0  0  0  0  0  0  0  0  0
   11.2019   -0.7961    0.0000 O   0  0  0  0  0  0  0  0  0  0  0  0
    8.7800   -1.3064    0.0000 O   0  0  0  0  0  0  0  0  0  0  0  0
   16.8589   -3.2421    0.0000 O   0  0  0  0  0  0  0  0  0  0  0  0
   10.3562    1.2163    0.0000 O   0  0  0  0  0  0  0  0  0  0  0  0
    3.2702    4.8341    0.0000 O   0  0  0  0  0  0  0  0  0  0  0  0
    2.3500    8.2734    0.0000 O   0  0  0  0  0  0  0  0  0  0  0  0
    3.8213    4.2201    0.0000 O   0  0  0  0  0  0  0  0  0  0  0  0
    5.2178    1.5938    0.0000 O   0  0  0  0  0  0  0  0  0  0  0  0
    7.8960    2.8883    0.0000 O   0  0  0  0  0  0  0  0  0  0  0  0
    7.1271    0.5358    0.0000 O   0  0  0  0  0  0  0  0  0  0  0  0
   12.4834    3.1249    0.0000 O   0  0  0  0  0  0  0  0  0  0  0  0
   13.1495   -4.0364    0.0000 N   0  0  0  0  0  0  0  0  0  0  0  0
   11.2402   -2.9784    0.0000 N   0  0  0  0  0  0  0  0  0  0  0  0
   15.2089   -3.2393    0.0000 N   0  0  0  0  0  0  0  0  0  0  0  0
   10.1383   -1.7503    0.0000 N   0  0  0  0  0  0  0  0  0  0  0  0
   15.6226   -2.5255    0.0000 N   0  0  0  0  0  0  0  0  0  0  0  0
   12.3806   -6.3890    0.0000 N   0  0  0  0  0  0  0  0  0  0  0  0
    9.2926    0.2619    0.0000 N   0  0  0  0  0  0  0  0  0  0  0  0
    3.1485    7.0391    0.0000 N   0  0  0  0  0  0  0  0  0  0  0  0
    4.3338    5.7884    0.0000 N   0  0  0  0  0  0  0  0  0  0  0  0
   16.8613   -1.8132    0.0000 N   0  0  0  0  0  0  0  0  0  0  0  0
    8.1907    1.4900    0.0000 N   0  0  0  0  0  0  0  0  0  0  0  0
    5.1795    3.7761    0.0000 N   0  0  0  0  0  0  0  0  0  0  0  0
    6.2814    2.5480    0.0000 N   0  0  0  0  0  0  0  0  0  0  0  0
   11.3170   -7.3433    0.0000 N   0  0  0  0  0  0  0  0  0  0  0  0
   12.6753   -7.7873    0.0000 N   0  0  0  0  0  0  0  0  0  0  0  0
    3.8596    0.7098    0.0000 N   0  0  0  0  0  0  0  0  0  0  0  0
    6.7335    6.3823    0.0000 N   0  0  0  0  0  0  0  0  0  0  0  0
    5.9507    7.4636    0.0000 N   0  0  0  0  0  0  0  0  0  0  0  0
   13.9701   -3.9516    0.0000 C   0  0  0  0  0  0  0  0  0  0  0  0
   14.3043   -4.7058    0.0000 C   0  0  0  0  0  0  0  0  0  0  0  0
   13.6903   -5.2569    0.0000 C   0  0  0  0  0  0  0  0  0  0  0  0
   12.9766   -4.8431    0.0000 C   0  0  0  0  0  0  0  0  0  0  0  0
   12.5984   -3.4224    0.0000 C   0  0  0  0  0  0  0  0  0  0  0  0
   11.7912   -3.5925    0.0000 C   0  0  0  0  0  0  0  0  0  0  0  0
   14.3838   -3.2378    0.0000 C   0  0  0  0  0  0  0  0  0  0  0  0
   11.5349   -4.3767    0.0000 C   0  0  0  0  0  0  0  0  0  0  0  0
   12.0859   -4.9907    0.0000 C   0  0  0  0  0  0  0  0  0  0  0  0
    9.8819   -2.5345    0.0000 C   0  0  0  0  0  0  0  0  0  0  0  0
   10.4330   -3.1486    0.0000 C   0  0  0  0  0  0  0  0  0  0  0  0
    9.0747   -2.7046    0.0000 C   0  0  0  0  0  0  0  0  0  0  0  0
    8.8184   -3.4889    0.0000 C   0  0  0  0  0  0  0  0  0  0  0  0
   11.8295   -5.7750    0.0000 C   0  0  0  0  0  0  0  0  0  0  0  0
    8.0112   -3.6590    0.0000 C   0  0  0  0  0  0  0  0  0  0  0  0
    9.3694   -4.1029    0.0000 C   0  0  0  0  0  0  0  0  0  0  0  0
    9.5873   -1.1363    0.0000 C   0  0  0  0  0  0  0  0  0  0  0  0
    9.8436   -0.3521    0.0000 C   0  0  0  0  0  0  0  0  0  0  0  0
   10.6509   -0.1820    0.0000 C   0  0  0  0  0  0  0  0  0  0  0  0
   16.4476   -2.5269    0.0000 C   0  0  0  0  0  0  0  0  0  0  0  0
    2.9756    6.2324    0.0000 C   0  0  0  0  0  0  0  0  0  0  0  0
   12.0091   -0.6259    0.0000 C   0  0  0  0  0  0  0  0  0  0  0  0
    8.9979    1.6602    0.0000 C   0  0  0  0  0  0  0  0  0  0  0  0
    9.5489    1.0461    0.0000 C   0  0  0  0  0  0  0  0  0  0  0  0
   12.1242   -7.1732    0.0000 C   0  0  0  0  0  0  0  0  0  0  0  0
    2.1549    6.1475    0.0000 C   0  0  0  0  0  0  0  0  0  0  0  0
    4.8848    5.1744    0.0000 C   0  0  0  0  0  0  0  0  0  0  0  0
    4.9232    2.9920    0.0000 C   0  0  0  0  0  0  0  0  0  0  0  0
    1.8207    6.9019    0.0000 C   0  0  0  0  0  0  0  0  0  0  0  0
    9.2542    2.4444    0.0000 C   0  0  0  0  0  0  0  0  0  0  0  0
    4.1159    2.8219    0.0000 C   0  0  0  0  0  0  0  0  0  0  0  0
    3.5266    5.6183    0.0000 C   0  0  0  0  0  0  0  0  0  0  0  0
    2.4348    7.4528    0.0000 C   0  0  0  0  0  0  0  0  0  0  0  0
    5.6921    5.3445    0.0000 C   0  0  0  0  0  0  0  0  0  0  0  0
    6.8324    1.9340    0.0000 C   0  0  0  0  0  0  0  0  0  0  0  0
    4.6285    4.3902    0.0000 C   0  0  0  0  0  0  0  0  0  0  0  0
   12.1793   -1.4332    0.0000 C   0  0  0  0  0  0  0  0  0  0  0  0
   12.8164   -0.4557    0.0000 C   0  0  0  0  0  0  0  0  0  0  0  0
   11.8389    0.1814    0.0000 C   0  0  0  0  0  0  0  0  0  0  0  0
    3.8596    2.0376    0.0000 C   0  0  0  0  0  0  0  0  0  0  0  0
    5.4742    2.3779    0.0000 C   0  0  0  0  0  0  0  0  0  0  0  0
    7.6397    2.1041    0.0000 C   0  0  0  0  0  0  0  0  0  0  0  0
   10.0615    2.6145    0.0000 C   0  0  0  0  0  0  0  0  0  0  0  0
    3.0790    1.7862    0.0000 C   0  0  0  0  0  0  0  0  0  0  0  0
    5.9484    6.1287    0.0000 C   0  0  0  0  0  0  0  0  0  0  0  0
    4.3411    1.3737    0.0000 C   0  0  0  0  0  0  0  0  0  0  0  0
    3.0790    0.9612    0.0000 C   0  0  0  0  0  0  0  0  0  0  0  0
    6.5761    1.1498    0.0000 C   0  0  0  0  0  0  0  0  0  0  0  0
    2.3645    2.1987    0.0000 C   0  0  0  0  0  0  0  0  0  0  0  0
   10.3178    3.3987    0.0000 C   0  0  0  0  0  0  0  0  0  0  0  0
   10.6125    2.0005    0.0000 C   0  0  0  0  0  0  0  0  0  0  0  0
    2.3645    0.5487    0.0000 C   0  0  0  0  0  0  0  0  0  0  0  0
    5.4646    6.7970    0.0000 C   0  0  0  0  0  0  0  0  0  0  0  0
    1.6500    1.7862    0.0000 C   0  0  0  0  0  0  0  0  0  0  0  0
    1.6500    0.9612    0.0000 C   0  0  0  0  0  0  0  0  0  0  0  0
   11.1251    3.5688    0.0000 C   0  0  0  0  0  0  0  0  0  0  0  0
   11.4198    2.1706    0.0000 C   0  0  0  0  0  0  0  0  0  0  0  0
    6.7349    7.2073    0.0000 C   0  0  0  0  0  0  0  0  0  0  0  0
   11.6761    2.9548    0.0000 C   0  0  0  0  0  0  0  0  0  0  0  0
    0.0000    0.0000    0.0000 H   0  0  0  0  0  0  0  0  0  0  0  0
    0.0000    0.0000    0.0000 H   0  0  0  0  0  0  0  0  0  0  0  0
    0.0000    0.0000    0.0000 H   0  0  0  0  0  0  0  0  0  0  0  0
    0.0000    0.0000    0.0000 H   0  0  0  0  0  0  0  0  0  0  0  0
    0.0000    0.0000    0.0000 H   0  0  0  0  0  0  0  0  0  0  0  0
    0.0000    0.0000    0.0000 H   0  0  0  0  0  0  0  0  0  0  0  0
    0.0000    0.0000    0.0000 H   0  0  0  0  0  0  0  0  0  0  0  0
    0.0000    0.0000    0.0000 H   0  0  0  0  0  0  0  0  0  0  0  0
    0.0000    0.0000    0.0000 H   0  0  0  0  0  0  0  0  0  0  0  0
    0.0000    0.0000    0.0000 H   0  0  0  0  0  0  0  0  0  0  0  0
    0.0000    0.0000    0.0000 H   0  0  0  0  0  0  0  0  0  0  0  0
    0.0000    0.0000    0.0000 H   0  0  0  0  0  0  0  0  0  0  0  0
    0.0000    0.0000    0.0000 H   0  0  0  0  0  0  0  0  0  0  0  0
    0.0000    0.0000    0.0000 H   0  0  0  0  0  0  0  0  0  0  0  0
    0.0000    0.0000    0.0000 H   0  0  0  0  0  0  0  0  0  0  0  0
    0.0000    0.0000    0.0000 H   0  0  0  0  0  0  0  0  0  0  0  0
    0.0000    0.0000    0.0000 H   0  0  0  0  0  0  0  0  0  0  0  0
    0.0000    0.0000    0.0000 H   0  0  0  0  0  0  0  0  0  0  0  0
    0.0000    0.0000    0.0000 H   0  0  0  0  0  0  0  0  0  0  0  0
    0.0000    0.0000    0.0000 H   0  0  0  0  0  0  0  0  0  0  0  0
    0.0000    0.0000    0.0000 H   0  0  0  0  0  0  0  0  0  0  0  0
    0.0000    0.0000    0.0000 H   0  0  0  0  0  0  0  0  0  0  0  0
    0.0000    0.0000    0.0000 H   0  0  0  0  0  0  0  0  0  0  0  0
    0.0000    0.0000    0.0000 H   0  0  0  0  0  0  0  0  0  0  0  0
    0.0000    0.0000    0.0000 H   0  0  0  0  0  0  0  0  0  0  0  0
    0.0000    0.0000    0.0000 H   0  0  0  0  0  0  0  0  0  0  0  0
    0.0000    0.0000    0.0000 H   0  0  0  0  0  0  0  0  0  0  0  0
    0.0000    0.0000    0.0000 H   0  0  0  0  0  0  0  0  0  0  0  0
    0.0000    0.0000    0.0000 H   0  0  0  0  0  0  0  0  0  0  0  0
    0.0000    0.0000    0.0000 H   0  0  0  0  0  0  0  0  0  0  0  0
    0.0000    0.0000    0.0000 H   0  0  0  0  0  0  0  0  0  0  0  0
    0.0000    0.0000    0.0000 H   0  0  0  0  0  0  0  0  0  0  0  0
    0.0000    0.0000    0.0000 H   0  0  0  0  0  0  0  0  0  0  0  0
    0.0000    0.0000    0.0000 H   0  0  0  0  0  0  0  0  0  0  0  0
    0.0000    0.0000    0.0000 H   0  0  0  0  0  0  0  0  0  0  0  0
    0.0000    0.0000    0.0000 H   0  0  0  0  0  0  0  0  0  0  0  0
    0.0000    0.0000    0.0000 H   0  0  0  0  0  0  0  0  0  0  0  0
    0.0000    0.0000    0.0000 H   0  0  0  0  0  0  0  0  0  0  0  0
    0.0000    0.0000    0.0000 H   0  0  0  0  0  0  0  0  0  0  0  0
    0.0000    0.0000    0.0000 H   0  0  0  0  0  0  0  0  0  0  0  0
    0.0000    0.0000    0.0000 H   0  0  0  0  0  0  0  0  0  0  0  0
    0.0000    0.0000    0.0000 H   0  0  0  0  0  0  0  0  0  0  0  0
    0.0000    0.0000    0.0000 H   0  0  0  0  0  0  0  0  0  0  0  0
    0.0000    0.0000    0.0000 H   0  0  0  0  0  0  0  0  0  0  0  0
    0.0000    0.0000    0.0000 H   0  0  0  0  0  0  0  0  0  0  0  0
    0.0000    0.0000    0.0000 H   0  0  0  0  0  0  0  0  0  0  0  0
    0.0000    0.0000    0.0000 H   0  0  0  0  0  0  0  0  0  0  0  0
    0.0000    0.0000    0.0000 H   0  0  0  0  0  0  0  0  0  0  0  0
    0.0000    0.0000    0.0000 H   0  0  0  0  0  0  0  0  0  0  0  0
    0.0000    0.0000    0.0000 H   0  0  0  0  0  0  0  0  0  0  0  0
    0.0000    0.0000    0.0000 H   0  0  0  0  0  0  0  0  0  0  0  0
    0.0000    0.0000    0.0000 H   0  0  0  0  0  0  0  0  0  0  0  0
    0.0000    0.0000    0.0000 H   0  0  0  0  0  0  0  0  0  0  0  0
    0.0000    0.0000    0.0000 H   0  0  0  0  0  0  0  0  0  0  0  0
    0.0000    0.0000    0.0000 H   0  0  0  0  0  0  0  0  0  0  0  0
    0.0000    0.0000    0.0000 H   0  0  0  0  0  0  0  0  0  0  0  0
    0.0000    0.0000    0.0000 H   0  0  0  0  0  0  0  0  0  0  0  0
    0.0000    0.0000    0.0000 H   0  0  0  0  0  0  0  0  0  0  0  0
    0.0000    0.0000    0.0000 H   0  0  0  0  0  0  0  0  0  0  0  0
    0.0000    0.0000    0.0000 H   0  0  0  0  0  0  0  0  0  0  0  0
    0.0000    0.0000    0.0000 H   0  0  0  0  0  0  0  0  0  0  0  0
    0.0000    0.0000    0.0000 H   0  0  0  0  0  0  0  0  0  0  0  0
    0.0000    0.0000    0.0000 H   0  0  0  0  0  0  0  0  0  0  0  0
    0.0000    0.0000    0.0000 H   0  0  0  0  0  0  0  0  0  0  0  0
    0.0000    0.0000    0.0000 H   0  0  0  0  0  0  0  0  0  0  0  0
    0.0000    0.0000    0.0000 H   0  0  0  0  0  0  0  0  0  0  0  0
    0.0000    0.0000    0.0000 H   0  0  0  0  0  0  0  0  0  0  0  0
    0.0000    0.0000    0.0000 H   0  0  0  0  0  0  0  0  0  0  0  0
    0.0000    0.0000    0.0000 H   0  0  0  0  0  0  0  0  0  0  0  0
    0.0000    0.0000    0.0000 H   0  0  0  0  0  0  0  0  0  0  0  0
    0.0000    0.0000    0.0000 H   0  0  0  0  0  0  0  0  0  0  0  0
    0.0000    0.0000    0.0000 H   0  0  0  0  0  0  0  0  0  0  0  0
    0.0000    0.0000    0.0000 H   0  0  0  0  0  0  0  0  0  0  0  0
    0.0000    0.0000    0.0000 H   0  0  0  0  0  0  0  0  0  0  0  0
    0.0000    0.0000    0.0000 H   0  0  0  0  0  0  0  0  0  0  0  0
    0.0000    0.0000    0.0000 H   0  0  0  0  0  0  0  0  0  0  0  0
    0.0000    0.0000    0.0000 H   0  0  0  0  0  0  0  0  0  0  0  0
    0.0000    0.0000    0.0000 H   0  0  0  0  0  0  0  0  0  0  0  0
    0.0000    0.0000    0.0000 H   0  0  0  0  0  0  0  0  0  0  0  0
    0.0000    0.0000    0.0000 H   0  0  0  0  0  0  0  0  0  0  0  0
    0.0000    0.0000    0.0000 H   0  0  0  0  0  0  0  0  0  0  0  0
    0.0000    0.0000    0.0000 H   0  0  0  0  0  0  0  0  0  0  0  0
    0.0000    0.0000    0.0000 H   0  0  0  0  0  0  0  0  0  0  0  0
    0.0000    0.0000    0.0000 H   0  0  0  0  0  0  0  0  0  0  0  0
  1 37  2  0
  2 39  2  0
  3 43  2  0
  4 51  1  0
  4 54  1  0
  5 49  2  0
  6 52  2  0
  7 56  2  0
  8 64  2  0
  9 65  2  0
 10 68  2  0
 11 73  2  0
 12 74  2  0
 13 80  1  0
 14 91  1  0
 15 33  1  0
 15 36  1  0
 15 37  1  0
 38 16  1  6
 16 43  1  0
 17 19  1  0
 17 39  1  0
 42 18  1  6
 18 49  1  0
 19 52  1  0
 20 46  1  0
 20 57  2  3
 50 21  1  6
 21 56  1  0
 22 53  1  0
 22 65  1  0
 59 23  1  1
 23 64  1  0
 24 52  1  0
 55 25  1  1
 25 74  1  0
 60 26  1  1
 26 68  1  0
 67 27  1  6
 27 73  1  0
 28 57  1  0
 29 57  1  0
 30 78  1  0
 30 79  1  0
 31 77  1  0
 31 90  1  0
 32 85  1  0
 32 90  2  0
 33 34  1  0
 33 39  1  6
 34 35  1  0
 35 36  1  0
 37 38  1  0
 38 40  1  0
 40 41  1  0
 41 46  1  0
 42 43  1  0
 42 44  1  0
 44 45  1  0
 45 47  1  0
 45 48  1  0
 49 50  1  0
 50 51  1  0
 53 58  1  0
 53 64  1  6
 54 69  1  0
 54 70  1  0
 54 71  1  0
 55 56  1  0
 55 62  1  0
 58 61  1  0
 59 66  1  0
 59 68  1  0
 60 63  1  0
 60 73  1  0
 61 65  1  0
 62 75  1  0
 63 72  1  0
 66 77  1  0
 67 74  1  0
 67 80  1  0
 72 76  1  0
 72 78  2  0
 75 82  2  0
 75 83  1  0
 76 79  2  0
 76 81  1  0
 77 85  2  0
 79 84  1  0
 81 86  2  0
 82 88  1  0
 83 89  2  0
 84 87  2  0
 86 87  1  0
 88 91  2  0
 89 91  1  0
 13 92  1  0
 14 93  1  0
 16 94  1  0
 17 95  1  0
 18 96  1  0
 19 97  1  0
 21 98  1  0
 22 99  1  0
 23100  1  0
 24101  1  0
 24102  1  0
 25103  1  0
 26104  1  0
 27105  1  0
 28106  1  0
 28107  1  0
 29108  1  0
 29109  1  0
 30110  1  0
 31111  1  0
 33112  1  0
 34113  1  0
 34114  1  0
 35115  1  0
 35116  1  0
 36117  1  0
 36118  1  0
 38119  1  0
 40120  1  0
 40121  1  0
 41122  1  0
 41123  1  0
 42124  1  0
 44125  1  0
 44126  1  0
 45127  1  0
 46128  1  0
 46129  1  0
 47130  1  0
 47131  1  0
 47132  1  0
 48133  1  0
 48134  1  0
 48135  1  0
 50136  1  0
 51137  1  0
 51138  1  0
 53139  1  0
 55140  1  0
 58141  1  0
 58142  1  0
 59143  1  0
 60144  1  0
 61145  1  0
 61146  1  0
 62147  1  0
 62148  1  0
 63149  1  0
 63150  1  0
 66151  1  0
 66152  1  0
 67153  1  0
 69154  1  0
 69155  1  0
 69156  1  0
 70157  1  0
 70158  1  0
 70159  1  0
 71160  1  0
 71161  1  0
 71162  1  0
 78163  1  0
 80164  1  0
 80165  1  0
 81166  1  0
 82167  1  0
 83168  1  0
 84169  1  0
 85170  1  0
 86171  1  0
 87172  1  0
 88173  1  0
 89174  1  0
 90175  1  0
M  END
>  <ALOGPS_LOGP>  (1) 
0.30

>  <ALOGPS_LOGS>  (1) 
-4.65

>  <ALOGPS_SOLUBILITY>  (1) 
2.83e-02 g/l

>  <DATABASE_ID>  (1) 
DB00014

>  <DATABASE_NAME>  (1) 
drugbank

>  <DRUGBANK_ID>  (1) 
DB00014

>  <DRUG_GROUPS>  (1) 
approved

>  <EXACT_MASS>  (1) 
1268.641439486

>  <FORMULA>  (1) 
C59H84N18O14

>  <GENERIC_NAME>  (1) 
Goserelin

>  <INCHI_IDENTIFIER>  (1) 
InChI=1S/C59H84N18O14/c1-31(2)22-40(49(82)68-39(12-8-20-64-57(60)61)56(89)77-21-9-13-46(77)55(88)75-76-58(62)90)69-54(87)45(29-91-59(3,4)5)74-50(83)41(23-32-14-16-35(79)17-15-32)70-53(86)44(28-78)73-51(84)42(24-33-26-65-37-11-7-6-10-36(33)37)71-52(85)43(25-34-27-63-30-66-34)72-48(81)38-18-19-47(80)67-38/h6-7,10-11,14-17,26-27,30-31,38-46,65,78-79H,8-9,12-13,18-25,28-29H2,1-5H3,(H,63,66)(H,67,80)(H,68,82)(H,69,87)(H,70,86)(H,71,85)(H,72,81)(H,73,84)(H,74,83)(H,75,88)(H4,60,61,64)(H3,62,76,90)/t38-,39-,40-,41-,42-,43-,44-,45+,46-/m0/s1

>  <INCHI_KEY>  (1) 
BLCLNMBMMGCOAS-URPVMXJPSA-N

>  <JCHEM_ACCEPTOR_COUNT>  (1) 
18

>  <JCHEM_AVERAGE_POLARIZABILITY>  (1) 
131.22118283534343

>  <JCHEM_BIOAVAILABILITY>  (1) 
0

>  <JCHEM_DONOR_COUNT>  (1) 
17

>  <JCHEM_FORMAL_CHARGE>  (1) 
0

>  <JCHEM_GHOSE_FILTER>  (1) 
0

>  <JCHEM_IUPAC>  (1) 
(2S)-1-[(2S)-2-[(2S)-2-[(2R)-3-(tert-butoxy)-2-[(2S)-2-[(2S)-3-hydroxy-2-[(2S)-2-[(2S)-3-(1H-imidazol-5-yl)-2-{[(2S)-5-oxopyrrolidin-2-yl]formamido}propanamido]-3-(1H-indol-3-yl)propanamido]propanamido]-3-(4-hydroxyphenyl)propanamido]propanamido]-4-methylpentanamido]-5-[(diaminomethylidene)amino]pentanoyl]-N-(carbamoylamino)pyrrolidine-2-carboxamide

>  <JCHEM_LOGP>  (1) 
-5.17557331843203

>  <JCHEM_MDDR_LIKE_RULE>  (1) 
1

>  <JCHEM_NUMBER_OF_RINGS>  (1) 
6

>  <JCHEM_PHYSIOLOGICAL_CHARGE>  (1) 
2

>  <JCHEM_PKA>  (1) 
9.818594492171766

>  <JCHEM_PKA_STRONGEST_ACIDIC>  (1) 
9.267832115311407

>  <JCHEM_PKA_STRONGEST_BASIC>  (1) 
10.816089522841512

>  <JCHEM_POLAR_SURFACE_AREA>  (1) 
495.8899999999997

>  <JCHEM_REFRACTIVITY>  (1) 
325.83880000000016

>  <JCHEM_ROTATABLE_BOND_COUNT>  (1) 
33

>  <JCHEM_RULE_OF_FIVE>  (1) 
0

>  <JCHEM_TRADITIONAL_IUPAC>  (1) 
(2S)-1-[(2S)-2-[(2S)-2-[(2R)-3-(tert-butoxy)-2-[(2S)-2-[(2S)-3-hydroxy-2-[(2S)-2-[(2S)-3-(3H-imidazol-4-yl)-2-{[(2S)-5-oxopyrrolidin-2-yl]formamido}propanamido]-3-(1H-indol-3-yl)propanamido]propanamido]-3-(4-hydroxyphenyl)propanamido]propanamido]-4-methylpentanamido]-5-[(diaminomethylidene)amino]pentanoyl]-N-(carbamoylamino)pyrrolidine-2-carboxamide

>  <JCHEM_VEBER_RULE>  (1) 
0

>  <MOLECULAR_WEIGHT>  (1) 
1269.4105

>  <PRODUCTS>  (1) 
Zoladex; Zoladex Inj Depot 3.6mg; Zoladex LA Inj Depot 10.8mg

>  <SALTS>  (1) 
Goserelin acetate

>  <SECONDARY_ACCESSION_NUMBERS>  (1) 
BTD00113; BIOD00113

>  <SMILES>  (1) 
CC(C)C[C@H](NC(=O)[C@@H](COC(C)(C)C)NC(=O)[C@H](CC1=CC=C(O)C=C1)NC(=O)[C@H](CO)NC(=O)[C@H](CC1=CNC2=CC=CC=C12)NC(=O)[C@H](CC1=CN=CN1)NC(=O)[C@@H]1CCC(=O)N1)C(=O)N[C@@H](CCCN=C(N)N)C(=O)N1CCC[C@H]1C(=O)NNC(N)=O

$$$$
