612
     RDKit          2D

 54 54  0  0  1  0  0  0  0  0999 V2000
    4.5080    1.6500    0.0000 O   0  0  0  0  0  0  0  0  0  0  0  0
    4.5080    3.3001    0.0000 O   0  0  0  0  0  0  0  0  0  0  0  0
    3.7935   -2.0625    0.0000 O   0  0  0  0  0  0  0  0  0  0  0  0
    3.0791   -4.1251    0.0000 O   0  0  0  0  0  0  0  0  0  0  0  0
    5.9370    4.1251    0.0000 N   0  0  0  0  0  0  0  0  0  0  0  0
    5.9370    3.3001    0.0000 C   0  0  0  0  0  0  0  0  0  0  0  0
    5.2224    2.8876    0.0000 C   0  0  0  0  0  0  0  0  0  0  0  0
    6.6515    4.5376    0.0000 C   0  0  0  0  0  0  0  0  0  0  0  0
    5.2224    2.0625    0.0000 C   0  0  0  0  0  0  0  0  0  0  0  0
    7.3659    4.1251    0.0000 C   0  0  0  0  0  0  0  0  0  0  0  0
    6.6515    5.3626    0.0000 C   0  0  0  0  0  0  0  0  0  0  0  0
    4.5080    0.8250    0.0000 C   0  0  0  0  0  0  0  0  0  0  0  0
    4.5080   -0.8250    0.0000 C   0  0  0  0  0  0  0  0  0  0  0  0
    4.5080   -1.6500    0.0000 C   0  0  0  0  0  0  0  0  0  0  0  0
    2.3645   -4.5376    0.0000 C   0  0  0  0  0  0  0  0  0  0  0  0
    3.7935    0.4125    0.0000 C   0  0  0  0  0  0  0  0  0  0  0  0
    5.2224    0.4125    0.0000 C   0  0  0  0  0  0  0  0  0  0  0  0
    3.7935   -2.8876    0.0000 C   0  0  0  0  0  0  0  0  0  0  0  0
    3.0791   -3.3001    0.0000 C   0  0  0  0  0  0  0  0  0  0  0  0
    3.7935   -0.4125    0.0000 C   0  0  0  0  0  0  0  0  0  0  0  0
    5.2224   -0.4125    0.0000 C   0  0  0  0  0  0  0  0  0  0  0  0
    2.3645   -5.3626    0.0000 C   0  0  0  0  0  0  0  0  0  0  0  0
    1.6500   -4.1251    0.0000 C   0  0  0  0  0  0  0  0  0  0  0  0
    0.0000    0.0000    0.0000 H   0  0  0  0  0  0  0  0  0  0  0  0
    0.0000    0.0000    0.0000 H   0  0  0  0  0  0  0  0  0  0  0  0
    0.0000    0.0000    0.0000 H   0  0  0  0  0  0  0  0  0  0  0  0
    0.0000    0.0000    0.0000 H   0  0  0  0  0  0  0  0  0  0  0  0
    0.0000    0.0000    0.0000 H   0  0  0  0  0  0  0  0  0  0  0  0
    0.0000    0.0000    0.0000 H   0  0  0  0  0  0  0  0  0  0  0  0
    0.0000    0.0000    0.0000 H   0  0  0  0  0  0  0  0  0  0  0  0
    0.0000    0.0000    0.0000 H   0  0  0  0  0  0  0  0  0  0  0  0
    0.0000    0.0000    0.0000 H   0  0  0  0  0  0  0  0  0  0  0  0
    0.0000    0.0000    0.0000 H   0  0  0  0  0  0  0  0  0  0  0  0
    0.0000    0.0000    0.0000 H   0  0  0  0  0  0  0  0  0  0  0  0
    0.0000    0.0000    0.0000 H   0  0  0  0  0  0  0  0  0  0  0  0
    0.0000    0.0000    0.0000 H   0  0  0  0  0  0  0  0  0  0  0  0
    0.0000    0.0000    0.0000 H   0  0  0  0  0  0  0  0  0  0  0  0
    0.0000    0.0000    0.0000 H   0  0  0  0  0  0  0  0  0  0  0  0
    0.0000    0.0000    0.0000 H   0  0  0  0  0  0  0  0  0  0  0  0
    0.0000    0.0000    0.0000 H   0  0  0  0  0  0  0  0  0  0  0  0
    0.0000    0.0000    0.0000 H   0  0  0  0  0  0  0  0  0  0  0  0
    0.0000    0.0000    0.0000 H   0  0  0  0  0  0  0  0  0  0  0  0
    0.0000    0.0000    0.0000 H   0  0  0  0  0  0  0  0  0  0  0  0
    0.0000    0.0000    0.0000 H   0  0  0  0  0  0  0  0  0  0  0  0
    0.0000    0.0000    0.0000 H   0  0  0  0  0  0  0  0  0  0  0  0
    0.0000    0.0000    0.0000 H   0  0  0  0  0  0  0  0  0  0  0  0
    0.0000    0.0000    0.0000 H   0  0  0  0  0  0  0  0  0  0  0  0
    0.0000    0.0000    0.0000 H   0  0  0  0  0  0  0  0  0  0  0  0
    0.0000    0.0000    0.0000 H   0  0  0  0  0  0  0  0  0  0  0  0
    0.0000    0.0000    0.0000 H   0  0  0  0  0  0  0  0  0  0  0  0
    0.0000    0.0000    0.0000 H   0  0  0  0  0  0  0  0  0  0  0  0
    0.0000    0.0000    0.0000 H   0  0  0  0  0  0  0  0  0  0  0  0
    0.0000    0.0000    0.0000 H   0  0  0  0  0  0  0  0  0  0  0  0
    0.0000    0.0000    0.0000 H   0  0  0  0  0  0  0  0  0  0  0  0
  1  9  1  0
  1 12  1  0
  2  7  1  0
  3 14  1  0
  3 18  1  0
  4 15  1  0
  4 19  1  0
  5  6  1  0
  5  8  1  0
  6  7  1  0
  7  9  1  0
  8 10  1  0
  8 11  1  0
 12 16  2  0
 12 17  1  0
 13 14  1  0
 13 20  2  0
 13 21  1  0
 15 22  1  0
 15 23  1  0
 16 20  1  0
 17 21  2  0
 18 19  1  0
  2 24  1  0
  5 25  1  0
  6 26  1  0
  6 27  1  0
  7 28  1  0
  8 29  1  0
  9 30  1  0
  9 31  1  0
 10 32  1  0
 10 33  1  0
 10 34  1  0
 11 35  1  0
 11 36  1  0
 11 37  1  0
 14 38  1  0
 14 39  1  0
 15 40  1  0
 16 41  1  0
 17 42  1  0
 18 43  1  0
 18 44  1  0
 19 45  1  0
 19 46  1  0
 20 47  1  0
 21 48  1  0
 22 49  1  0
 22 50  1  0
 22 51  1  0
 23 52  1  0
 23 53  1  0
 23 54  1  0
M  END
>  <ALOGPS_LOGP>  (1) 
2.30

>  <ALOGPS_LOGS>  (1) 
-3.66

>  <ALOGPS_SOLUBILITY>  (1) 
7.07e-02 g/l

>  <DATABASE_ID>  (1) 
DB00612

>  <DATABASE_NAME>  (1) 
drugbank

>  <DRUGBANK_ID>  (1) 
DB00612

>  <DRUG_GROUPS>  (1) 
approved

>  <EXACT_MASS>  (1) 
325.225308485

>  <FORMULA>  (1) 
C18H31NO4

>  <GENERIC_NAME>  (1) 
Bisoprolol

>  <INCHI_IDENTIFIER>  (1) 
InChI=1S/C18H31NO4/c1-14(2)19-11-17(20)13-23-18-7-5-16(6-8-18)12-21-9-10-22-15(3)4/h5-8,14-15,17,19-20H,9-13H2,1-4H3

>  <INCHI_KEY>  (1) 
VHYCDWMUTMEGQY-UHFFFAOYSA-N

>  <INTERNATIONAL_BRANDS>  (1) 
Cardicor; Concor; Concore; Detensiel; Emconcor; Emcor; Euradal; Isoten; Monocor; Soprol

>  <JCHEM_ACCEPTOR_COUNT>  (1) 
5

>  <JCHEM_AVERAGE_POLARIZABILITY>  (1) 
38.49740221234476

>  <JCHEM_BIOAVAILABILITY>  (1) 
1

>  <JCHEM_DONOR_COUNT>  (1) 
2

>  <JCHEM_FORMAL_CHARGE>  (1) 
0

>  <JCHEM_GHOSE_FILTER>  (1) 
1

>  <JCHEM_IUPAC>  (1) 
1-[(propan-2-yl)amino]-3-(4-{[2-(propan-2-yloxy)ethoxy]methyl}phenoxy)propan-2-ol

>  <JCHEM_LOGP>  (1) 
2.1964033799999996

>  <JCHEM_MDDR_LIKE_RULE>  (1) 
0

>  <JCHEM_NUMBER_OF_RINGS>  (1) 
1

>  <JCHEM_PHYSIOLOGICAL_CHARGE>  (1) 
1

>  <JCHEM_PKA_STRONGEST_ACIDIC>  (1) 
14.087971415762247

>  <JCHEM_PKA_STRONGEST_BASIC>  (1) 
9.666166605708403

>  <JCHEM_POLAR_SURFACE_AREA>  (1) 
59.95

>  <JCHEM_REFRACTIVITY>  (1) 
92.15350000000001

>  <JCHEM_ROTATABLE_BOND_COUNT>  (1) 
12

>  <JCHEM_RULE_OF_FIVE>  (1) 
1

>  <JCHEM_TRADITIONAL_IUPAC>  (1) 
1-{4-[(2-isopropoxyethoxy)methyl]phenoxy}-3-(isopropylamino)propan-2-ol

>  <JCHEM_VEBER_RULE>  (1) 
0

>  <MOLECULAR_WEIGHT>  (1) 
325.443

>  <PRODUCTS>  (1) 
Apo-bisoprolol; Ava-bisoprolol; Bisoprolol; Bisoprolol Fumarate; Bisoprolol Fumarate and Hydrochlorothiazide; Dom-bisoprolol; Mint-bisoprolol; Monocor         -(10mg); Monocor   -(5mg); Mylan-bisoprolol; Nu-bisoprolol; PHL-bisoprolol; PMS-bisoprolol; Pro-bisoprolol - 10; Pro-bisoprolol - 5; Sandoz Bisoprolol; Teva-bisoprolol; Zebeta; Ziac

>  <SALTS>  (1) 
Bisoprolol Fumarate

>  <SECONDARY_ACCESSION_NUMBERS>  (1) 
APRD00257

>  <SMILES>  (1) 
CC(C)NCC(O)COC1=CC=C(COCCOC(C)C)C=C1

>  <SYNONYMS>  (1) 
Bisoprolol; Bisoprololum

$$$$
