 
     RDKit          2D

 30 31  0  0  0  0  0  0  0  0999 V2000
   15.5389  -10.1715    0.0000 C   0  0  0  0  0  0  0  0  0  0  0  0
   16.2531   -9.7609    0.0000 N   0  0  0  0  0  0  0  0  0  0  0  0
   15.5389  -10.9965    0.0000 C   0  0  0  0  0  0  0  0  0  0  0  0
   14.8283   -9.7609    0.0000 N   0  0  0  0  0  0  0  0  0  0  0  0
   16.9673  -10.1752    0.0000 C   0  0  0  0  0  0  0  0  0  0  0  0
   16.2531   -8.9396    0.0000 C   0  0  0  0  0  0  0  0  0  0  0  0
   14.8283  -11.4107    0.0000 C   0  0  0  0  0  0  0  0  0  0  0  0
   14.1105  -10.1715    0.0000 C   0  0  0  0  0  0  0  0  0  0  0  0
   17.6815   -9.7644    0.0000 C   0  0  0  0  0  0  0  0  0  0  0  0
   16.9673   -8.5253    0.0000 C   0  0  0  0  0  0  0  0  0  0  0  0
   14.1105  -10.9965    0.0000 N   0  0  0  0  0  0  0  0  0  0  0  0
   14.8283  -12.2392    0.0000 N   0  0  0  0  0  0  0  0  0  0  0  0
   13.3963   -9.7609    0.0000 N   0  0  0  0  0  0  0  0  0  0  0  0
   17.6815   -8.9396    0.0000 C   0  0  0  0  0  0  0  0  0  0  0  0
   12.9178  -11.5000    0.0000 O   0  0  0  0  0  0  0  0  0  0  0  0
    0.0000    0.0000    0.0000 H   0  0  0  0  0  0  0  0  0  0  0  0
    0.0000    0.0000    0.0000 H   0  0  0  0  0  0  0  0  0  0  0  0
    0.0000    0.0000    0.0000 H   0  0  0  0  0  0  0  0  0  0  0  0
    0.0000    0.0000    0.0000 H   0  0  0  0  0  0  0  0  0  0  0  0
    0.0000    0.0000    0.0000 H   0  0  0  0  0  0  0  0  0  0  0  0
    0.0000    0.0000    0.0000 H   0  0  0  0  0  0  0  0  0  0  0  0
    0.0000    0.0000    0.0000 H   0  0  0  0  0  0  0  0  0  0  0  0
    0.0000    0.0000    0.0000 H   0  0  0  0  0  0  0  0  0  0  0  0
    0.0000    0.0000    0.0000 H   0  0  0  0  0  0  0  0  0  0  0  0
    0.0000    0.0000    0.0000 H   0  0  0  0  0  0  0  0  0  0  0  0
    0.0000    0.0000    0.0000 H   0  0  0  0  0  0  0  0  0  0  0  0
    0.0000    0.0000    0.0000 H   0  0  0  0  0  0  0  0  0  0  0  0
    0.0000    0.0000    0.0000 H   0  0  0  0  0  0  0  0  0  0  0  0
    0.0000    0.0000    0.0000 H   0  0  0  0  0  0  0  0  0  0  0  0
    0.0000    0.0000    0.0000 H   0  0  0  0  0  0  0  0  0  0  0  0
  1  2  1  0
  1  3  2  0
  1  4  1  0
  2  5  1  0
  2  6  1  0
  3  7  1  0
  4  8  2  0
  5  9  1  0
  6 10  1  0
  7 11  2  0
  7 12  1  0
  8 13  1  0
  9 14  1  0
 11 15  1  0
  8 11  1  0
 10 14  1  0
  3 16  1  0
  5 17  1  0
  5 18  1  0
  6 19  1  0
  6 20  1  0
  9 21  1  0
  9 22  1  0
 10 23  1  0
 10 24  1  0
 12 25  1  0
 12 26  1  0
 13 27  1  0
 13 28  1  0
 14 29  1  0
 14 30  1  0
M  CHG  2  11   1  15  -1
M  END
>  <ALOGPS_LOGP>  (1) 
1.24

>  <ALOGPS_LOGS>  (1) 
-1.02

>  <ALOGPS_SOLUBILITY>  (1) 
1.99e+01 g/l

>  <DATABASE_ID>  (1) 
DB00350

>  <DATABASE_NAME>  (1) 
drugbank

>  <DRUGBANK_ID>  (1) 
DB00350

>  <DRUG_GROUPS>  (1) 
approved

>  <EXACT_MASS>  (1) 
209.127660127

>  <FORMULA>  (1) 
C9H15N5O

>  <GENERIC_NAME>  (1) 
Minoxidil

>  <INCHI_IDENTIFIER>  (1) 
InChI=1S/C9H15N5O/c10-7-6-8(12-9(11)14(7)15)13-4-2-1-3-5-13/h6H,1-5,10H2,(H2,11,12)

>  <INCHI_KEY>  (1) 
ZFMITUMMTDLWHR-UHFFFAOYSA-N

>  <INTERNATIONAL_BRANDS>  (1) 
Alostil; Apo-Gain; Avogain; Lipogaine; Loniten; Lonolox; Minodyl; Minoxigaine; Minoximen; Mintop; Regaine; Rogaine; Theroxidil; Tricoxidil; Vanarex

>  <JCHEM_ACCEPTOR_COUNT>  (1) 
5

>  <JCHEM_AVERAGE_POLARIZABILITY>  (1) 
21.926640072836022

>  <JCHEM_BIOAVAILABILITY>  (1) 
1

>  <JCHEM_DONOR_COUNT>  (1) 
2

>  <JCHEM_FORMAL_CHARGE>  (1) 
0

>  <JCHEM_GHOSE_FILTER>  (1) 
1

>  <JCHEM_IUPAC>  (1) 
2,6-diamino-4-(piperidin-1-yl)pyrimidin-1-ium-1-olate

>  <JCHEM_LOGP>  (1) 
1.3007928796666661

>  <JCHEM_MDDR_LIKE_RULE>  (1) 
0

>  <JCHEM_NUMBER_OF_RINGS>  (1) 
2

>  <JCHEM_PHYSIOLOGICAL_CHARGE>  (1) 
0

>  <JCHEM_PKA>  (1) 
18.777507709994545

>  <JCHEM_PKA_STRONGEST_ACIDIC>  (1) 
14.219512895470881

>  <JCHEM_PKA_STRONGEST_BASIC>  (1) 
4.343175123877362

>  <JCHEM_POLAR_SURFACE_AREA>  (1) 
93.63

>  <JCHEM_REFRACTIVITY>  (1) 
60.7351

>  <JCHEM_ROTATABLE_BOND_COUNT>  (1) 
1

>  <JCHEM_RULE_OF_FIVE>  (1) 
1

>  <JCHEM_TRADITIONAL_IUPAC>  (1) 
rogaine

>  <JCHEM_VEBER_RULE>  (1) 
0

>  <MOLECULAR_WEIGHT>  (1) 
209.2483

>  <PRODUCTS>  (1) 
Apo-gain Liq 20mg/ml; BOSLEY PROFESSIONAL STRENGTH HAIR REGROWTH TREATMENT Regular Strength For Men; BOSLEY PROFESSIONAL STRENGTH HAIR REGROWTH TREATMENT Regular Strength For Women; Basic Care Hair Regrowth; Boost Regrowth for Women; Capillus Hair Regrowth Treatment; CareOne Hair Regrowth Treatment Extra Strength; Careone Hair Regrowth Treatment; Cerafill Retaliate; Cerafill Retaliate Extra Strength For Men; Core Values Minoxidil; Daylogic For Men; Equaline Hair Regrowth Treatment For Women; Equaline Hair Regrowth Treatment for Men; Equaline Hair Regrowth Treatment for Women; Equaline hair regrowth treatment for men; Equate Hair Regrowth Treatment; Equate Hair Regrowth Treatment for Men; Equate Hair Regrowth Treatment for Women; Follinique; GETTIK Hair Regrowth Treatment; Gen-minoxidil Liq 2%; Good Neighbor Pharmacy Hair Regrowth Treatment for Men; Good Sense Hair Regrowth Treatment; Good Sense Hair Regrowth Treatment for Men; Good Sense Hair Regrowth Treatment for Women; Good Sense hair regrowth treatment for women; Hair Regrow; Hair Regrowth Formula; Hair Regrowth Treatment; Hair Regrowth Treatment Extra Strength for Men; Hair Regrowth Treatment For Men; Hair Regrowth Treatment for Men; Hair Regrowth Treatment for Men Extra Strength; Hair Regrowth Treatment for Women; Hair regrowth treatment for men; Hairgro; Harmon Face Values Minoxidil; Harmon Face Values Minoxidil Mens; Hims; Image Essentials Hair Regrowth Treatment; Image Essentials Hair Regrowth Treatment For Men; KERANIQUE For Women Hair Regrowth Treatment; Keeps; Kirkland Signature Minoxidil; Leader Hair Regrowth Treatment; Loesch Hair Regrowth Formula Unscented Topical Solution Extra-Strength for Men; Loesch Hair Regrowth Formula Unscented Topical Solution Regular-Strength for Men and Women; Loniten 10mg; Loniten 2.5mg; MENS alopexy; Members Mark Hair Regrowth Treatment; Members Mark Minoxidil; Men's Rogaine Foam 5%; Mens ComBack HAIR REGROWTH TREATMENT EXTRA STRENGTH UNSCENTED; Mens Hair Regrowth Treatment extra strength; Mens Kirkland Extra Strength; Mens Rogaine Extra Strength; Mens Rogaine Extra Strength Unscented; Mens rogaine Minoxidil - Unscented Formula; Mens rogaine Unscented Formula; Minox - Liq Top 20mg/ml; Minoxidil; Minoxidil Foam; Minoxidil For Women; Minoxidil Form Men extra strength; Minoxidil Solution; Minoxidil for Men; Minoxidil for Women; Minoxidil regular strength; Minoxigaine Topical Solution - 2%; Nioxin Hair Regrowth Treatment Extra Strength for Men; Nioxin Hair Regrowth Treatment for Women; Nutrastim Hair Regrowth Treatment For Women; Nutrastim Hair Regrowth Treatment Unscented For Men; Pantene Pro-V Expert Collection Hair Regrowth Treatment for Women; Qilib Hair Regrowth Treatment for Men; Qilib Hair Regrowth Treatment for Women; Re-Gro; Regen; Regenpure Precision; Renewal for Men; Rogaine Minoxidil Topical 2% Solution; Signature Care Hair Regrowth Treatment; Signature Care Hair Regrowth Treatment for Women; Signature Care Hair Regrowth Treatment for men; Simply Right Minoxidil; Simply Right Minoxidil Extra Strength; Smart Sense Hair Regrowth; Solution; Toppik Mens Hair Regrowth Treatment Extra Strength; Toppik Womens Hair Regrowth Treatment; Up and Up Hair Regrowth Treatment for Men; Up and Up Hair Regrowth Treatment for Women; Up and Up Minoxidil; Up and Up minoxidil; Vanarex Hair Regrowth Treatment; WOMENS alopexy; Women's Rogaine Foam 5%; Womens Rogaine - Unscented; Womens Rogaine Unscented; kirkland signature Minoxidil

>  <SECONDARY_ACCESSION_NUMBERS>  (1) 
APRD00086; DB08225

>  <SMILES>  (1) 
NC1=CC(=NC(N)=[N+]1[O-])N1CCCCC1

>  <SYNONYMS>  (1) 
2,4-Diamino-6-piperidinopyrimidine 3-oxide; 6-Piperidin-1-ylpyrimidine-2,4-diamine 3-oxide; Minossidile; Minoxidil; Minoxidilum

$$$$
