114
     RDKit          2D

 26 26  0  0  0  0  0  0  0  0999 V2000
    6.3799    0.2063    0.0000 P   0  0  0  0  0  0  0  0  0  0  0  0
    5.6655   -0.2063    0.0000 O   0  0  0  0  0  0  0  0  0  0  0  0
    2.0930    0.2063    0.0000 O   0  0  0  0  0  0  0  0  0  0  0  0
    6.7925   -0.5082    0.0000 O   0  0  0  0  0  0  0  0  0  0  0  0
    7.0944    0.6188    0.0000 O   0  0  0  0  0  0  0  0  0  0  0  0
    2.8075    1.4438    0.0000 O   0  0  0  0  0  0  0  0  0  0  0  0
    5.9674    0.9207    0.0000 O   0  0  0  0  0  0  0  0  0  0  0  0
    3.5220   -1.4438    0.0000 N   0  0  0  0  0  0  0  0  0  0  0  0
    4.2365   -0.2063    0.0000 C   0  0  0  0  0  0  0  0  0  0  0  0
    3.5220    0.2063    0.0000 C   0  0  0  0  0  0  0  0  0  0  0  0
    4.9509    0.2063    0.0000 C   0  0  0  0  0  0  0  0  0  0  0  0
    2.8075   -0.2063    0.0000 C   0  0  0  0  0  0  0  0  0  0  0  0
    2.8075   -1.0313    0.0000 C   0  0  0  0  0  0  0  0  0  0  0  0
    4.2365   -1.0313    0.0000 C   0  0  0  0  0  0  0  0  0  0  0  0
    2.0930   -1.4438    0.0000 C   0  0  0  0  0  0  0  0  0  0  0  0
    3.5220    1.0313    0.0000 C   0  0  0  0  0  0  0  0  0  0  0  0
    0.0000    0.0000    0.0000 H   0  0  0  0  0  0  0  0  0  0  0  0
    0.0000    0.0000    0.0000 H   0  0  0  0  0  0  0  0  0  0  0  0
    0.0000    0.0000    0.0000 H   0  0  0  0  0  0  0  0  0  0  0  0
    0.0000    0.0000    0.0000 H   0  0  0  0  0  0  0  0  0  0  0  0
    0.0000    0.0000    0.0000 H   0  0  0  0  0  0  0  0  0  0  0  0
    0.0000    0.0000    0.0000 H   0  0  0  0  0  0  0  0  0  0  0  0
    0.0000    0.0000    0.0000 H   0  0  0  0  0  0  0  0  0  0  0  0
    0.0000    0.0000    0.0000 H   0  0  0  0  0  0  0  0  0  0  0  0
    0.0000    0.0000    0.0000 H   0  0  0  0  0  0  0  0  0  0  0  0
    0.0000    0.0000    0.0000 H   0  0  0  0  0  0  0  0  0  0  0  0
  1  2  1  0
  1  4  1  0
  1  5  1  0
  1  7  2  0
  2 11  1  0
  3 12  1  0
  6 16  2  0
  8 13  2  0
  8 14  1  0
  9 10  1  0
  9 11  1  0
  9 14  2  0
 10 12  2  0
 10 16  1  0
 12 13  1  0
 13 15  1  0
  3 17  1  0
  4 18  1  0
  5 19  1  0
 11 20  1  0
 11 21  1  0
 14 22  1  0
 15 23  1  0
 15 24  1  0
 15 25  1  0
 16 26  1  0
M  END
>  <ALOGPS_LOGP>  (1) 
-0.55

>  <ALOGPS_LOGS>  (1) 
-1.64

>  <ALOGPS_SOLUBILITY>  (1) 
5.70e+00 g/l

>  <DATABASE_ID>  (1) 
DB00114

>  <DATABASE_NAME>  (1) 
drugbank

>  <DRUGBANK_ID>  (1) 
DB00114

>  <DRUG_GROUPS>  (1) 
approved; nutraceutical

>  <EXACT_MASS>  (1) 
247.024573569

>  <FORMULA>  (1) 
C8H10NO6P

>  <GENERIC_NAME>  (1) 
Pyridoxal Phosphate

>  <INCHI_IDENTIFIER>  (1) 
InChI=1S/C8H10NO6P/c1-5-8(11)7(3-10)6(2-9-5)4-15-16(12,13)14/h2-3,11H,4H2,1H3,(H2,12,13,14)

>  <INCHI_KEY>  (1) 
NGVDGCNFYWLIFO-UHFFFAOYSA-N

>  <INTERNATIONAL_BRANDS>  (1) 
Biosechs; Himitan; Vitazechs

>  <JCHEM_ACCEPTOR_COUNT>  (1) 
6

>  <JCHEM_AVERAGE_POLARIZABILITY>  (1) 
20.89888718130824

>  <JCHEM_BIOAVAILABILITY>  (1) 
1

>  <JCHEM_DONOR_COUNT>  (1) 
3

>  <JCHEM_FORMAL_CHARGE>  (1) 
0

>  <JCHEM_GHOSE_FILTER>  (1) 
0

>  <JCHEM_IUPAC>  (1) 
[(4-formyl-5-hydroxy-6-methylpyridin-3-yl)methoxy]phosphonic acid

>  <JCHEM_LOGP>  (1) 
-2.0856087036128135

>  <JCHEM_MDDR_LIKE_RULE>  (1) 
0

>  <JCHEM_NUMBER_OF_RINGS>  (1) 
1

>  <JCHEM_PHYSIOLOGICAL_CHARGE>  (1) 
-2

>  <JCHEM_PKA>  (1) 
6.691277029499376

>  <JCHEM_PKA_STRONGEST_ACIDIC>  (1) 
1.6802986106557465

>  <JCHEM_PKA_STRONGEST_BASIC>  (1) 
4.109012435085948

>  <JCHEM_POLAR_SURFACE_AREA>  (1) 
116.95

>  <JCHEM_REFRACTIVITY>  (1) 
54.746300000000005

>  <JCHEM_ROTATABLE_BOND_COUNT>  (1) 
4

>  <JCHEM_RULE_OF_FIVE>  (1) 
1

>  <JCHEM_TRADITIONAL_IUPAC>  (1) 
pyridoxal phosphate

>  <JCHEM_VEBER_RULE>  (1) 
0

>  <MOLECULAR_WEIGHT>  (1) 
247.1419

>  <PRODUCTS>  (1) 
EnBrace HR; EnLyte; L-Methyl-B6-B12

>  <SALTS>  (1) 
Pyridoxal phosphate hydrate

>  <SECONDARY_ACCESSION_NUMBERS>  (1) 
NUTR00045

>  <SMILES>  (1) 
CC1=NC=C(COP(O)(O)=O)C(C=O)=C1O

>  <SYNONYMS>  (1) 
3-hydroxy-2-methyl-5-((phosphonooxy)methyl)-4-pyridinecarboxaldehyde; 3-hydroxy-5-(hydroxymethyl)-2-methylisonicotinaldehyde 5-phosphate; Codecarboxylase; PLP; Pyridoxal 5-monophosphoric acid ester; Pyridoxal 5-phosphate; Pyridoxal 5'-phosphate; Pyridoxal P; Pyridoxal phosphate anhydrous; Pyridoxal-5P; Pyridoxal-P

$$$$
