754
     RDKit          2D

 27 28  0  0  1  0  0  0  0  0999 V2000
    4.2559    0.1222    0.0000 O   0  0  0  0  0  0  0  0  0  0  0  0
    1.9065    1.8292    0.0000 O   0  0  0  0  0  0  0  0  0  0  0  0
    3.2164    1.1617    0.0000 N   0  0  0  0  0  0  0  0  0  0  0  0
    2.1365    0.3771    0.0000 N   0  0  0  0  0  0  0  0  0  0  0  0
    2.8039   -0.1078    0.0000 C   0  0  0  0  0  0  0  0  0  0  0  0
    3.4714    0.3771    0.0000 C   0  0  0  0  0  0  0  0  0  0  0  0
    2.8039   -0.9328    0.0000 C   0  0  0  0  0  0  0  0  0  0  0  0
    2.3914    1.1617    0.0000 C   0  0  0  0  0  0  0  0  0  0  0  0
    3.7014    1.8292    0.0000 C   0  0  0  0  0  0  0  0  0  0  0  0
    3.5184   -1.3453    0.0000 C   0  0  0  0  0  0  0  0  0  0  0  0
    2.0894   -1.3453    0.0000 C   0  0  0  0  0  0  0  0  0  0  0  0
    3.3658    2.5828    0.0000 C   0  0  0  0  0  0  0  0  0  0  0  0
    3.5184   -2.1703    0.0000 C   0  0  0  0  0  0  0  0  0  0  0  0
    2.0894   -2.1703    0.0000 C   0  0  0  0  0  0  0  0  0  0  0  0
    2.8039   -2.5828    0.0000 C   0  0  0  0  0  0  0  0  0  0  0  0
    0.0000    0.0000    0.0000 H   0  0  0  0  0  0  0  0  0  0  0  0
    0.0000    0.0000    0.0000 H   0  0  0  0  0  0  0  0  0  0  0  0
    0.0000    0.0000    0.0000 H   0  0  0  0  0  0  0  0  0  0  0  0
    0.0000    0.0000    0.0000 H   0  0  0  0  0  0  0  0  0  0  0  0
    0.0000    0.0000    0.0000 H   0  0  0  0  0  0  0  0  0  0  0  0
    0.0000    0.0000    0.0000 H   0  0  0  0  0  0  0  0  0  0  0  0
    0.0000    0.0000    0.0000 H   0  0  0  0  0  0  0  0  0  0  0  0
    0.0000    0.0000    0.0000 H   0  0  0  0  0  0  0  0  0  0  0  0
    0.0000    0.0000    0.0000 H   0  0  0  0  0  0  0  0  0  0  0  0
    0.0000    0.0000    0.0000 H   0  0  0  0  0  0  0  0  0  0  0  0
    0.0000    0.0000    0.0000 H   0  0  0  0  0  0  0  0  0  0  0  0
    0.0000    0.0000    0.0000 H   0  0  0  0  0  0  0  0  0  0  0  0
  1  6  2  0
  2  8  2  0
  3  6  1  0
  3  8  1  0
  3  9  1  0
  4  5  1  0
  4  8  1  0
  5  6  1  0
  5  7  1  0
  7 10  2  0
  7 11  1  0
  9 12  1  0
 10 13  1  0
 11 14  2  0
 13 15  2  0
 14 15  1  0
  4 16  1  0
  5 17  1  0
  9 18  1  0
  9 19  1  0
 10 20  1  0
 11 21  1  0
 12 22  1  0
 12 23  1  0
 12 24  1  0
 13 25  1  0
 14 26  1  0
 15 27  1  0
M  END
>  <ALOGPS_LOGP>  (1) 
1.11

>  <ALOGPS_LOGS>  (1) 
-1.93

>  <ALOGPS_SOLUBILITY>  (1) 
2.38e+00 g/l

>  <DATABASE_ID>  (1) 
DB00754

>  <DATABASE_NAME>  (1) 
drugbank

>  <DRUGBANK_ID>  (1) 
DB00754

>  <DRUG_GROUPS>  (1) 
approved

>  <EXACT_MASS>  (1) 
204.089877638

>  <FORMULA>  (1) 
C11H12N2O2

>  <GENERIC_NAME>  (1) 
Ethotoin

>  <INCHI_IDENTIFIER>  (1) 
InChI=1S/C11H12N2O2/c1-2-13-10(14)9(12-11(13)15)8-6-4-3-5-7-8/h3-7,9H,2H2,1H3,(H,12,15)

>  <INCHI_KEY>  (1) 
SZQIFWWUIBRPBZ-UHFFFAOYSA-N

>  <INTERNATIONAL_BRANDS>  (1) 
Accenon; Pegoanone

>  <JCHEM_ACCEPTOR_COUNT>  (1) 
2

>  <JCHEM_AVERAGE_POLARIZABILITY>  (1) 
20.68269261748099

>  <JCHEM_BIOAVAILABILITY>  (1) 
1

>  <JCHEM_DONOR_COUNT>  (1) 
1

>  <JCHEM_FORMAL_CHARGE>  (1) 
0

>  <JCHEM_GHOSE_FILTER>  (1) 
1

>  <JCHEM_IUPAC>  (1) 
3-ethyl-5-phenylimidazolidine-2,4-dione

>  <JCHEM_LOGP>  (1) 
1.0666929576666668

>  <JCHEM_MDDR_LIKE_RULE>  (1) 
0

>  <JCHEM_NUMBER_OF_RINGS>  (1) 
2

>  <JCHEM_PHYSIOLOGICAL_CHARGE>  (1) 
0

>  <JCHEM_PKA>  (1) 
16.22901817510841

>  <JCHEM_PKA_STRONGEST_ACIDIC>  (1) 
11.288525520110513

>  <JCHEM_PKA_STRONGEST_BASIC>  (1) 
-8.373058584171257

>  <JCHEM_POLAR_SURFACE_AREA>  (1) 
49.410000000000004

>  <JCHEM_REFRACTIVITY>  (1) 
55.0493

>  <JCHEM_ROTATABLE_BOND_COUNT>  (1) 
2

>  <JCHEM_RULE_OF_FIVE>  (1) 
1

>  <JCHEM_TRADITIONAL_IUPAC>  (1) 
ethotoin

>  <JCHEM_VEBER_RULE>  (1) 
0

>  <MOLECULAR_WEIGHT>  (1) 
204.2252

>  <PRODUCTS>  (1) 
Peganone

>  <SECONDARY_ACCESSION_NUMBERS>  (1) 
APRD00962

>  <SMILES>  (1) 
CCN1C(=O)NC(C1=O)C1=CC=CC=C1

>  <SYNONYMS>  (1) 
Ethotoin; Ethoto√Øne; Ethotoinum; Etotoina

$$$$
