441
     RDKit          2D

 29 30  0  0  1  0  0  0  0  0999 V2000
    5.1206   -1.3156    0.0000 F   0  0  0  0  0  0  0  0  0  0  0  0
    4.8209   -0.3932    0.0000 F   0  0  0  0  0  0  0  0  0  0  0  0
    3.0011   -1.0607    0.0000 O   0  0  0  0  0  0  0  0  0  0  0  0
    4.5660   -2.5127    0.0000 O   0  0  0  0  0  0  0  0  0  0  0  0
    1.9506   -2.4265    0.0000 O   0  0  0  0  0  0  0  0  0  0  0  0
    2.2396    0.2492    0.0000 O   0  0  0  0  0  0  0  0  0  0  0  0
    3.6685    0.2492    0.0000 N   0  0  0  0  0  0  0  0  0  0  0  0
    2.9541    1.4867    0.0000 N   0  0  0  0  0  0  0  0  0  0  0  0
    3.6685    2.7242    0.0000 N   0  0  0  0  0  0  0  0  0  0  0  0
    4.0810   -1.8453    0.0000 C   0  0  0  0  0  0  0  0  0  0  0  0
    4.3361   -1.0607    0.0000 C   0  0  0  0  0  0  0  0  0  0  0  0
    3.2560   -1.8453    0.0000 C   0  0  0  0  0  0  0  0  0  0  0  0
    3.6685   -0.5758    0.0000 C   0  0  0  0  0  0  0  0  0  0  0  0
    2.7711   -2.5127    0.0000 C   0  0  0  0  0  0  0  0  0  0  0  0
    4.3831    0.6617    0.0000 C   0  0  0  0  0  0  0  0  0  0  0  0
    2.9541    0.6617    0.0000 C   0  0  0  0  0  0  0  0  0  0  0  0
    4.3831    1.4867    0.0000 C   0  0  0  0  0  0  0  0  0  0  0  0
    3.6685    1.8992    0.0000 C   0  0  0  0  0  0  0  0  0  0  0  0
    0.0000    0.0000    0.0000 H   0  0  0  0  0  0  0  0  0  0  0  0
    0.0000    0.0000    0.0000 H   0  0  0  0  0  0  0  0  0  0  0  0
    0.0000    0.0000    0.0000 H   0  0  0  0  0  0  0  0  0  0  0  0
    0.0000    0.0000    0.0000 H   0  0  0  0  0  0  0  0  0  0  0  0
    0.0000    0.0000    0.0000 H   0  0  0  0  0  0  0  0  0  0  0  0
    0.0000    0.0000    0.0000 H   0  0  0  0  0  0  0  0  0  0  0  0
    0.0000    0.0000    0.0000 H   0  0  0  0  0  0  0  0  0  0  0  0
    0.0000    0.0000    0.0000 H   0  0  0  0  0  0  0  0  0  0  0  0
    0.0000    0.0000    0.0000 H   0  0  0  0  0  0  0  0  0  0  0  0
    0.0000    0.0000    0.0000 H   0  0  0  0  0  0  0  0  0  0  0  0
    0.0000    0.0000    0.0000 H   0  0  0  0  0  0  0  0  0  0  0  0
  1 11  1  0
  2 11  1  0
  3 12  1  0
  3 13  1  0
 10  4  1  1
  5 14  1  0
  6 16  2  0
 13  7  1  1
  7 15  1  0
  7 16  1  0
  8 16  1  0
  8 18  2  0
  9 18  1  0
 10 11  1  0
 10 12  1  0
 11 13  1  0
 12 14  1  1
 15 17  2  0
 17 18  1  0
  4 19  1  0
  5 20  1  0
  9 21  1  0
  9 22  1  0
 10 23  1  0
 12 24  1  0
 13 25  1  0
 14 26  1  0
 14 27  1  0
 15 28  1  0
 17 29  1  0
M  END
>  <ALOGPS_LOGP>  (1) 
0.14

>  <ALOGPS_LOGS>  (1) 
-1.07

>  <ALOGPS_SOLUBILITY>  (1) 
2.23e+01 g/l

>  <DATABASE_ID>  (1) 
DB00441

>  <DATABASE_NAME>  (1) 
drugbank

>  <DRUGBANK_ID>  (1) 
DB00441

>  <DRUG_GROUPS>  (1) 
approved

>  <EXACT_MASS>  (1) 
263.071762265

>  <FORMULA>  (1) 
C9H11F2N3O4

>  <GENERIC_NAME>  (1) 
Gemcitabine

>  <INCHI_IDENTIFIER>  (1) 
InChI=1S/C9H11F2N3O4/c10-9(11)6(16)4(3-15)18-7(9)14-2-1-5(12)13-8(14)17/h1-2,4,6-7,15-16H,3H2,(H2,12,13,17)/t4-,6-,7-/m1/s1

>  <INCHI_KEY>  (1) 
SDUQYLNIPVEERB-QPPQHZFASA-N

>  <INTERNATIONAL_BRANDS>  (1) 
Abine; Abingem; Acytabin; Celgem; Celzar; Cytogem; Daplax; Dercin; Eriogem; Fotinex; Gebina; Gembio; Gemita; Gezt; Gitrabin; Gramagen; Jemta; Nallian; Oncogem; Ribozar; Tabin; Xtroz

>  <JCHEM_ACCEPTOR_COUNT>  (1) 
6

>  <JCHEM_AVERAGE_POLARIZABILITY>  (1) 
21.453914981710017

>  <JCHEM_BIOAVAILABILITY>  (1) 
1

>  <JCHEM_DONOR_COUNT>  (1) 
3

>  <JCHEM_FORMAL_CHARGE>  (1) 
0

>  <JCHEM_GHOSE_FILTER>  (1) 
0

>  <JCHEM_IUPAC>  (1) 
4-amino-1-[(2R,4R,5R)-3,3-difluoro-4-hydroxy-5-(hydroxymethyl)oxolan-2-yl]-1,2-dihydropyrimidin-2-one

>  <JCHEM_LOGP>  (1) 
-1.466539628

>  <JCHEM_MDDR_LIKE_RULE>  (1) 
0

>  <JCHEM_NUMBER_OF_RINGS>  (1) 
2

>  <JCHEM_PHYSIOLOGICAL_CHARGE>  (1) 
0

>  <JCHEM_PKA>  (1) 
14.678672317989776

>  <JCHEM_PKA_STRONGEST_ACIDIC>  (1) 
11.51706980194467

>  <JCHEM_PKA_STRONGEST_BASIC>  (1) 
-1.2568558951684876

>  <JCHEM_POLAR_SURFACE_AREA>  (1) 
108.37999999999998

>  <JCHEM_REFRACTIVITY>  (1) 
53.2503

>  <JCHEM_ROTATABLE_BOND_COUNT>  (1) 
2

>  <JCHEM_RULE_OF_FIVE>  (1) 
1

>  <JCHEM_TRADITIONAL_IUPAC>  (1) 
gemcitabine

>  <JCHEM_VEBER_RULE>  (1) 
0

>  <MOLECULAR_WEIGHT>  (1) 
263.1981

>  <PRODUCTS>  (1) 
Act Gemcitabine; Aj-gemcitabine; GEMCITABINE Hydrochloride; Gemcitabine; Gemcitabine Hydrochloride; Gemcitabine Hydrochloride for Injection; Gemcitabine Injection; Gemcitabine Sun for Injection; Gemcitabine for Injection; Gemcitabine for Injection Concentrate; Gemcitabine for Injection USP; Gemcitabine for Injection, USP; Gemcitabine hydrochloride; Gemzar; Gemzar  (1gm/vial); Gemzar (200mg/vial)

>  <SALTS>  (1) 
Gemcitabine Hydrochloride

>  <SECONDARY_ACCESSION_NUMBERS>  (1) 
APRD00201

>  <SMILES>  (1) 
NC1=NC(=O)N(C=C1)[C@@H]1O[C@H](CO)[C@@H](O)C1(F)F

>  <SYNONYMS>  (1) 
Gemcitabin; Gemcitabina; Gemcitabine; Gemcitabinum

$$$$
