478
     RDKit          2D

 34 36  0  0  1  0  0  0  0  0999 V2000
    3.8090    1.3595    0.0000 N   0  0  0  0  0  0  0  0  0  0  0  0
    3.0823    0.1008    0.0000 C   0  0  0  0  0  0  0  0  0  0  0  0
    2.3806   -1.1146    0.0000 C   0  0  0  0  0  0  0  0  0  0  0  0
    2.5023   -1.4797    0.0000 C   0  0  0  0  0  0  0  0  0  0  0  0
    3.7840   -1.1146    0.0000 C   0  0  0  0  0  0  0  0  0  0  0  0
    2.3806   -0.3044    0.0000 C   0  0  0  0  0  0  0  0  0  0  0  0
    2.5023   -0.6026    0.0000 C   0  0  0  0  0  0  0  0  0  0  0  0
    3.7840   -0.3044    0.0000 C   0  0  0  0  0  0  0  0  0  0  0  0
    1.6783   -1.5197    0.0000 C   0  0  0  0  0  0  0  0  0  0  0  0
    3.0823   -1.3687    0.0000 C   0  0  0  0  0  0  0  0  0  0  0  0
    3.2623   -1.8799    0.0000 C   0  0  0  0  0  0  0  0  0  0  0  0
    3.0823    0.9399    0.0000 C   0  0  0  0  0  0  0  0  0  0  0  0
    2.3555    1.3595    0.0000 C   0  0  0  0  0  0  0  0  0  0  0  0
    0.0000    0.0000    0.0000 H   0  0  0  0  0  0  0  0  0  0  0  0
    0.0000    0.0000    0.0000 H   0  0  0  0  0  0  0  0  0  0  0  0
    0.0000    0.0000    0.0000 H   0  0  0  0  0  0  0  0  0  0  0  0
    0.0000    0.0000    0.0000 H   0  0  0  0  0  0  0  0  0  0  0  0
    0.0000    0.0000    0.0000 H   0  0  0  0  0  0  0  0  0  0  0  0
    0.0000    0.0000    0.0000 H   0  0  0  0  0  0  0  0  0  0  0  0
    0.0000    0.0000    0.0000 H   0  0  0  0  0  0  0  0  0  0  0  0
    0.0000    0.0000    0.0000 H   0  0  0  0  0  0  0  0  0  0  0  0
    0.0000    0.0000    0.0000 H   0  0  0  0  0  0  0  0  0  0  0  0
    0.0000    0.0000    0.0000 H   0  0  0  0  0  0  0  0  0  0  0  0
    0.0000    0.0000    0.0000 H   0  0  0  0  0  0  0  0  0  0  0  0
    0.0000    0.0000    0.0000 H   0  0  0  0  0  0  0  0  0  0  0  0
    0.0000    0.0000    0.0000 H   0  0  0  0  0  0  0  0  0  0  0  0
    0.0000    0.0000    0.0000 H   0  0  0  0  0  0  0  0  0  0  0  0
    0.0000    0.0000    0.0000 H   0  0  0  0  0  0  0  0  0  0  0  0
    0.0000    0.0000    0.0000 H   0  0  0  0  0  0  0  0  0  0  0  0
    0.0000    0.0000    0.0000 H   0  0  0  0  0  0  0  0  0  0  0  0
    0.0000    0.0000    0.0000 H   0  0  0  0  0  0  0  0  0  0  0  0
    0.0000    0.0000    0.0000 H   0  0  0  0  0  0  0  0  0  0  0  0
    0.0000    0.0000    0.0000 H   0  0  0  0  0  0  0  0  0  0  0  0
    0.0000    0.0000    0.0000 H   0  0  0  0  0  0  0  0  0  0  0  0
  1 12  1  0
  2  6  1  0
  2  7  1  0
  2  8  1  0
  2 12  1  0
  3  6  1  0
  3  9  1  0
  3 10  1  0
  4  7  1  0
  4  9  1  0
  4 11  1  0
  5  8  1  0
  5 10  1  0
  5 11  1  0
 12 13  1  0
  1 14  1  0
  1 15  1  0
  3 16  1  0
  4 17  1  0
  5 18  1  0
  6 19  1  0
  6 20  1  0
  7 21  1  0
  7 22  1  0
  8 23  1  0
  8 24  1  0
  9 25  1  0
  9 26  1  0
 10 27  1  0
 10 28  1  0
 11 29  1  0
 11 30  1  0
 12 31  1  0
 13 32  1  0
 13 33  1  0
 13 34  1  0
M  END
>  <ALOGPS_LOGP>  (1) 
3.28

>  <ALOGPS_LOGS>  (1) 
-4.29

>  <ALOGPS_SOLUBILITY>  (1) 
9.15e-03 g/l

>  <DATABASE_ID>  (1) 
DB00478

>  <DATABASE_NAME>  (1) 
drugbank

>  <DRUGBANK_ID>  (1) 
DB00478

>  <DRUG_GROUPS>  (1) 
approved

>  <EXACT_MASS>  (1) 
179.167399677

>  <FORMULA>  (1) 
C12H21N

>  <GENERIC_NAME>  (1) 
Rimantadine

>  <INCHI_IDENTIFIER>  (1) 
InChI=1S/C12H21N/c1-8(13)12-5-9-2-10(6-12)4-11(3-9)7-12/h8-11H,2-7,13H2,1H3

>  <INCHI_KEY>  (1) 
UBCHPRBFMUDMNC-UHFFFAOYSA-N

>  <JCHEM_ACCEPTOR_COUNT>  (1) 
1

>  <JCHEM_AVERAGE_POLARIZABILITY>  (1) 
21.794789288753073

>  <JCHEM_BIOAVAILABILITY>  (1) 
1

>  <JCHEM_DONOR_COUNT>  (1) 
1

>  <JCHEM_FORMAL_CHARGE>  (1) 
0

>  <JCHEM_GHOSE_FILTER>  (1) 
1

>  <JCHEM_IUPAC>  (1) 
1-(adamantan-1-yl)ethan-1-amine

>  <JCHEM_LOGP>  (1) 
2.2170057613333336

>  <JCHEM_MDDR_LIKE_RULE>  (1) 
0

>  <JCHEM_NUMBER_OF_RINGS>  (1) 
3

>  <JCHEM_PHYSIOLOGICAL_CHARGE>  (1) 
1

>  <JCHEM_PKA_STRONGEST_BASIC>  (1) 
10.142245722995845

>  <JCHEM_POLAR_SURFACE_AREA>  (1) 
26.02

>  <JCHEM_REFRACTIVITY>  (1) 
54.522099999999995

>  <JCHEM_ROTATABLE_BOND_COUNT>  (1) 
1

>  <JCHEM_RULE_OF_FIVE>  (1) 
1

>  <JCHEM_TRADITIONAL_IUPAC>  (1) 
rimantadine

>  <JCHEM_VEBER_RULE>  (1) 
1

>  <MOLECULAR_WEIGHT>  (1) 
179.3018

>  <PRODUCTS>  (1) 
Flumadine; Rimantadine Hydrochloride; Rimantalist

>  <SALTS>  (1) 
Rimantadine Hydrochloride

>  <SECONDARY_ACCESSION_NUMBERS>  (1) 
APRD01219

>  <SMILES>  (1) 
CC(N)C12CC3CC(CC(C3)C1)C2

$$$$
