937
     RDKit          2D

 34 34  0  0  1  0  0  0  0  0999 V2000
    1.6500    0.4125    0.0000 O   0  0  0  0  0  0  0  0  0  0  0  0
    3.0790    1.2375    0.0000 N   0  0  0  0  0  0  0  0  0  0  0  0
    3.0790    0.4125    0.0000 C   0  0  0  0  0  0  0  0  0  0  0  0
    3.7934    1.6500    0.0000 C   0  0  0  0  0  0  0  0  0  0  0  0
    2.3644    1.6500    0.0000 C   0  0  0  0  0  0  0  0  0  0  0  0
    2.3644    0.0000    0.0000 C   0  0  0  0  0  0  0  0  0  0  0  0
    3.7934    0.0000    0.0000 C   0  0  0  0  0  0  0  0  0  0  0  0
    3.7934    2.4750    0.0000 C   0  0  0  0  0  0  0  0  0  0  0  0
    2.3644    2.4750    0.0000 C   0  0  0  0  0  0  0  0  0  0  0  0
    2.3644   -0.8250    0.0000 C   0  0  0  0  0  0  0  0  0  0  0  0
    3.0790   -1.2375    0.0000 C   0  0  0  0  0  0  0  0  0  0  0  0
    1.6500   -1.2375    0.0000 C   0  0  0  0  0  0  0  0  0  0  0  0
    3.0790   -2.0625    0.0000 C   0  0  0  0  0  0  0  0  0  0  0  0
    1.6500   -2.0625    0.0000 C   0  0  0  0  0  0  0  0  0  0  0  0
    2.3644   -2.4750    0.0000 C   0  0  0  0  0  0  0  0  0  0  0  0
    0.0000    0.0000    0.0000 H   0  0  0  0  0  0  0  0  0  0  0  0
    0.0000    0.0000    0.0000 H   0  0  0  0  0  0  0  0  0  0  0  0
    0.0000    0.0000    0.0000 H   0  0  0  0  0  0  0  0  0  0  0  0
    0.0000    0.0000    0.0000 H   0  0  0  0  0  0  0  0  0  0  0  0
    0.0000    0.0000    0.0000 H   0  0  0  0  0  0  0  0  0  0  0  0
    0.0000    0.0000    0.0000 H   0  0  0  0  0  0  0  0  0  0  0  0
    0.0000    0.0000    0.0000 H   0  0  0  0  0  0  0  0  0  0  0  0
    0.0000    0.0000    0.0000 H   0  0  0  0  0  0  0  0  0  0  0  0
    0.0000    0.0000    0.0000 H   0  0  0  0  0  0  0  0  0  0  0  0
    0.0000    0.0000    0.0000 H   0  0  0  0  0  0  0  0  0  0  0  0
    0.0000    0.0000    0.0000 H   0  0  0  0  0  0  0  0  0  0  0  0
    0.0000    0.0000    0.0000 H   0  0  0  0  0  0  0  0  0  0  0  0
    0.0000    0.0000    0.0000 H   0  0  0  0  0  0  0  0  0  0  0  0
    0.0000    0.0000    0.0000 H   0  0  0  0  0  0  0  0  0  0  0  0
    0.0000    0.0000    0.0000 H   0  0  0  0  0  0  0  0  0  0  0  0
    0.0000    0.0000    0.0000 H   0  0  0  0  0  0  0  0  0  0  0  0
    0.0000    0.0000    0.0000 H   0  0  0  0  0  0  0  0  0  0  0  0
    0.0000    0.0000    0.0000 H   0  0  0  0  0  0  0  0  0  0  0  0
    0.0000    0.0000    0.0000 H   0  0  0  0  0  0  0  0  0  0  0  0
  1  6  2  0
  2  3  1  0
  2  4  1  0
  2  5  1  0
  3  6  1  0
  3  7  1  0
  4  8  1  0
  5  9  1  0
  6 10  1  0
 10 11  2  0
 10 12  1  0
 11 13  1  0
 12 14  2  0
 13 15  2  0
 14 15  1  0
  3 16  1  0
  4 17  1  0
  4 18  1  0
  5 19  1  0
  5 20  1  0
  7 21  1  0
  7 22  1  0
  7 23  1  0
  8 24  1  0
  8 25  1  0
  8 26  1  0
  9 27  1  0
  9 28  1  0
  9 29  1  0
 11 30  1  0
 12 31  1  0
 13 32  1  0
 14 33  1  0
 15 34  1  0
M  END
>  <ALOGPS_LOGP>  (1) 
2.80

>  <ALOGPS_LOGS>  (1) 
-2.23

>  <ALOGPS_SOLUBILITY>  (1) 
1.22e+00 g/l

>  <DATABASE_ID>  (1) 
DB00937

>  <DATABASE_NAME>  (1) 
drugbank

>  <DRUGBANK_ID>  (1) 
DB00937

>  <DRUG_GROUPS>  (1) 
approved; illicit

>  <EXACT_MASS>  (1) 
205.146664235

>  <FORMULA>  (1) 
C13H19NO

>  <GENERIC_NAME>  (1) 
Diethylpropion

>  <INCHI_IDENTIFIER>  (1) 
InChI=1S/C13H19NO/c1-4-14(5-2)11(3)13(15)12-9-7-6-8-10-12/h6-11H,4-5H2,1-3H3

>  <INCHI_KEY>  (1) 
XXEPPPIWZFICOJ-UHFFFAOYSA-N

>  <INTERNATIONAL_BRANDS>  (1) 
Anorex; Dobesin; Frekentine; Linea; Moderatan; Neobes; Nobesine; Prefamone; Regenon; Tepanil; Tylinal

>  <JCHEM_ACCEPTOR_COUNT>  (1) 
2

>  <JCHEM_AVERAGE_POLARIZABILITY>  (1) 
24.124410458659263

>  <JCHEM_BIOAVAILABILITY>  (1) 
1

>  <JCHEM_DONOR_COUNT>  (1) 
0

>  <JCHEM_FORMAL_CHARGE>  (1) 
0

>  <JCHEM_GHOSE_FILTER>  (1) 
1

>  <JCHEM_IUPAC>  (1) 
2-(diethylamino)-1-phenylpropan-1-one

>  <JCHEM_LOGP>  (1) 
2.7047719746666665

>  <JCHEM_MDDR_LIKE_RULE>  (1) 
0

>  <JCHEM_NUMBER_OF_RINGS>  (1) 
1

>  <JCHEM_PHYSIOLOGICAL_CHARGE>  (1) 
1

>  <JCHEM_PKA_STRONGEST_ACIDIC>  (1) 
17.427207749681955

>  <JCHEM_PKA_STRONGEST_BASIC>  (1) 
7.441676162944761

>  <JCHEM_POLAR_SURFACE_AREA>  (1) 
20.310000000000002

>  <JCHEM_REFRACTIVITY>  (1) 
63.880900000000025

>  <JCHEM_ROTATABLE_BOND_COUNT>  (1) 
5

>  <JCHEM_RULE_OF_FIVE>  (1) 
1

>  <JCHEM_TRADITIONAL_IUPAC>  (1) 
diethylpropion

>  <JCHEM_VEBER_RULE>  (1) 
1

>  <MOLECULAR_WEIGHT>  (1) 
205.2961

>  <PRODUCTS>  (1) 
Diethylpropion HCl Controlled-Release; Diethylpropion HCl Immediate-Release; Diethylpropion Hydrochloride; Diethylpropion Hydrochloride Controlled-Release; Diethylpropion Hydrochloride ER; Diethylpropion HydrochlorideER ER; Nobesine 75 Sustained Release Capsule 75mg; Tenuate; Tenuate Dospan

>  <SALTS>  (1) 
Diethylpropion Hydrochloride

>  <SECONDARY_ACCESSION_NUMBERS>  (1) 
APRD00919

>  <SMILES>  (1) 
CCN(CC)C(C)C(=O)C1=CC=CC=C1

>  <SYNONYMS>  (1) 
(Â±)-diethylpropion; 1-phenyl-2-diethylamino-1-propanone; alpha-Benzoyltriethylamine; alpha-Diethylaminopropiophenone; Amfepramone; Amfepramonum; Anfepramona; Diethylcathinone

$$$$
