545
     RDKit          2D

 26 26  0  0  0  0  0  0  0  0999 V2000
    3.0791    0.2063    0.0000 O   0  0  0  0  0  0  0  0  0  0  0  0
    3.7935    1.4438    0.0000 O   0  0  0  0  0  0  0  0  0  0  0  0
    4.5080   -1.4438    0.0000 N   0  0  0  0  0  0  0  0  0  0  0  0
    2.3645    1.4438    0.0000 N   0  0  0  0  0  0  0  0  0  0  0  0
    3.7935   -0.2063    0.0000 C   0  0  0  0  0  0  0  0  0  0  0  0
    3.7935   -1.0313    0.0000 C   0  0  0  0  0  0  0  0  0  0  0  0
    5.2224   -1.0313    0.0000 C   0  0  0  0  0  0  0  0  0  0  0  0
    4.5080    0.2063    0.0000 C   0  0  0  0  0  0  0  0  0  0  0  0
    5.2224   -0.2063    0.0000 C   0  0  0  0  0  0  0  0  0  0  0  0
    4.5080   -2.2688    0.0000 C   0  0  0  0  0  0  0  0  0  0  0  0
    3.0791    1.0313    0.0000 C   0  0  0  0  0  0  0  0  0  0  0  0
    2.3645    2.2688    0.0000 C   0  0  0  0  0  0  0  0  0  0  0  0
    1.6500    1.0313    0.0000 C   0  0  0  0  0  0  0  0  0  0  0  0
    0.0000    0.0000    0.0000 H   0  0  0  0  0  0  0  0  0  0  0  0
    0.0000    0.0000    0.0000 H   0  0  0  0  0  0  0  0  0  0  0  0
    0.0000    0.0000    0.0000 H   0  0  0  0  0  0  0  0  0  0  0  0
    0.0000    0.0000    0.0000 H   0  0  0  0  0  0  0  0  0  0  0  0
    0.0000    0.0000    0.0000 H   0  0  0  0  0  0  0  0  0  0  0  0
    0.0000    0.0000    0.0000 H   0  0  0  0  0  0  0  0  0  0  0  0
    0.0000    0.0000    0.0000 H   0  0  0  0  0  0  0  0  0  0  0  0
    0.0000    0.0000    0.0000 H   0  0  0  0  0  0  0  0  0  0  0  0
    0.0000    0.0000    0.0000 H   0  0  0  0  0  0  0  0  0  0  0  0
    0.0000    0.0000    0.0000 H   0  0  0  0  0  0  0  0  0  0  0  0
    0.0000    0.0000    0.0000 H   0  0  0  0  0  0  0  0  0  0  0  0
    0.0000    0.0000    0.0000 H   0  0  0  0  0  0  0  0  0  0  0  0
    0.0000    0.0000    0.0000 H   0  0  0  0  0  0  0  0  0  0  0  0
  1  5  1  0
  1 11  1  0
  2 11  2  0
  3  6  2  0
  3  7  1  0
  3 10  1  0
  4 11  1  0
  4 12  1  0
  4 13  1  0
  5  6  1  0
  5  8  2  0
  7  9  2  0
  8  9  1  0
  6 14  1  0
  7 15  1  0
  8 16  1  0
  9 17  1  0
 10 18  1  0
 10 19  1  0
 10 20  1  0
 12 21  1  0
 12 22  1  0
 12 23  1  0
 13 24  1  0
 13 25  1  0
 13 26  1  0
M  CHG  1   3   1
M  END
>  <ALOGPS_LOGP>  (1) 
-3.13

>  <ALOGPS_LOGS>  (1) 
-2.32

>  <ALOGPS_SOLUBILITY>  (1) 
1.04e+00 g/l

>  <DATABASE_ID>  (1) 
DB00545

>  <DATABASE_NAME>  (1) 
drugbank

>  <DRUGBANK_ID>  (1) 
DB00545

>  <DRUG_GROUPS>  (1) 
approved

>  <EXACT_MASS>  (1) 
181.09770267

>  <FORMULA>  (1) 
C9H13N2O2

>  <GENERIC_NAME>  (1) 
Pyridostigmine

>  <INCHI_IDENTIFIER>  (1) 
InChI=1S/C9H13N2O2/c1-10(2)9(12)13-8-5-4-6-11(3)7-8/h4-7H,1-3H3/q+1

>  <INCHI_KEY>  (1) 
RVOLLAQWKVFTGE-UHFFFAOYSA-N

>  <INTERNATIONAL_BRANDS>  (1) 
Amiasten; Amygra; Antilon; Astinon; Kalymin; Kalymin forte; Kalymin N; Kalymin retard; Meshanon60; Mestinon retard; Myestin; Pyrimine

>  <JCHEM_ACCEPTOR_COUNT>  (1) 
1

>  <JCHEM_AVERAGE_POLARIZABILITY>  (1) 
19.381806034944322

>  <JCHEM_BIOAVAILABILITY>  (1) 
1

>  <JCHEM_DONOR_COUNT>  (1) 
0

>  <JCHEM_FORMAL_CHARGE>  (1) 
1

>  <JCHEM_GHOSE_FILTER>  (1) 
0

>  <JCHEM_IUPAC>  (1) 
3-[(dimethylcarbamoyl)oxy]-1-methylpyridin-1-ium

>  <JCHEM_LOGP>  (1) 
-3.4667273988050784

>  <JCHEM_MDDR_LIKE_RULE>  (1) 
0

>  <JCHEM_NUMBER_OF_RINGS>  (1) 
1

>  <JCHEM_PHYSIOLOGICAL_CHARGE>  (1) 
1

>  <JCHEM_PKA_STRONGEST_ACIDIC>  (1) 
19.52682691549042

>  <JCHEM_POLAR_SURFACE_AREA>  (1) 
33.42

>  <JCHEM_REFRACTIVITY>  (1) 
49.659

>  <JCHEM_ROTATABLE_BOND_COUNT>  (1) 
2

>  <JCHEM_RULE_OF_FIVE>  (1) 
1

>  <JCHEM_TRADITIONAL_IUPAC>  (1) 
pyridostigmine

>  <JCHEM_VEBER_RULE>  (1) 
1

>  <MOLECULAR_WEIGHT>  (1) 
181.2117

>  <PRODUCTS>  (1) 
Mestinon; Mestinon Tab 60mg USP; Mestinon-SR; Pyridostigmine Bromide; Regonol; Regonol Inj 5mg/ml

>  <SALTS>  (1) 
Pyridostigmine Bromide; Pyridostigmine chloride

>  <SECONDARY_ACCESSION_NUMBERS>  (1) 
APRD00380

>  <SMILES>  (1) 
CN(C)C(=O)OC1=C[N+](C)=CC=C1

>  <SYNONYMS>  (1) 
Bromure de Pyridostigmine; Bromuro de piridostigmina; Pyridostigmin bromid; Pyridostigmini Bromidum

$$$$
