220
     RDKit          2D

 85 88  0  0  1  0  0  0  0  0999 V2000
    3.7935    0.3077    0.0000 S   0  0  0  0  0  0  0  0  0  0  0  0
    5.2224   -2.1673    0.0000 O   0  0  0  0  0  0  0  0  0  0  0  0
    6.6515    0.3077    0.0000 O   0  0  0  0  0  0  0  0  0  0  0  0
    3.7935    1.1327    0.0000 O   0  0  0  0  0  0  0  0  0  0  0  0
    5.9370    4.0203    0.0000 O   0  0  0  0  0  0  0  0  0  0  0  0
    6.6515   -1.3423    0.0000 N   0  0  0  0  0  0  0  0  0  0  0  0
    5.9370   -3.4048    0.0000 N   0  0  0  0  0  0  0  0  0  0  0  0
    5.2224    1.1327    0.0000 N   0  0  0  0  0  0  0  0  0  0  0  0
    8.0804   -2.1673    0.0000 C   0  0  0  0  0  0  0  0  0  0  0  0
    8.0804   -1.3423    0.0000 C   0  0  0  0  0  0  0  0  0  0  0  0
    7.3659   -2.5798    0.0000 C   0  0  0  0  0  0  0  0  0  0  0  0
    7.3659   -0.9298    0.0000 C   0  0  0  0  0  0  0  0  0  0  0  0
    8.8180   -2.6084    0.0000 C   0  0  0  0  0  0  0  0  0  0  0  0
    8.8180   -0.9012    0.0000 C   0  0  0  0  0  0  0  0  0  0  0  0
    6.6515   -2.1673    0.0000 C   0  0  0  0  0  0  0  0  0  0  0  0
    9.5654   -2.1845    0.0000 C   0  0  0  0  0  0  0  0  0  0  0  0
    9.5654   -1.3251    0.0000 C   0  0  0  0  0  0  0  0  0  0  0  0
    5.9370   -0.9298    0.0000 C   0  0  0  0  0  0  0  0  0  0  0  0
    5.9370   -2.5798    0.0000 C   0  0  0  0  0  0  0  0  0  0  0  0
    5.9370   -0.1048    0.0000 C   0  0  0  0  0  0  0  0  0  0  0  0
    5.2224    0.3077    0.0000 C   0  0  0  0  0  0  0  0  0  0  0  0
    5.2224   -3.8174    0.0000 C   0  0  0  0  0  0  0  0  0  0  0  0
    4.5080   -0.1048    0.0000 C   0  0  0  0  0  0  0  0  0  0  0  0
    4.8099   -3.1029    0.0000 C   0  0  0  0  0  0  0  0  0  0  0  0
    4.5080   -4.2299    0.0000 C   0  0  0  0  0  0  0  0  0  0  0  0
    5.6350   -4.5318    0.0000 C   0  0  0  0  0  0  0  0  0  0  0  0
    4.5080    1.5453    0.0000 C   0  0  0  0  0  0  0  0  0  0  0  0
    4.5080    2.3703    0.0000 C   0  0  0  0  0  0  0  0  0  0  0  0
    3.0791   -0.1048    0.0000 C   0  0  0  0  0  0  0  0  0  0  0  0
    5.2224    2.7828    0.0000 C   0  0  0  0  0  0  0  0  0  0  0  0
    3.7935    2.7828    0.0000 C   0  0  0  0  0  0  0  0  0  0  0  0
    3.0791   -0.9298    0.0000 C   0  0  0  0  0  0  0  0  0  0  0  0
    2.3645    0.3077    0.0000 C   0  0  0  0  0  0  0  0  0  0  0  0
    5.2224    3.6078    0.0000 C   0  0  0  0  0  0  0  0  0  0  0  0
    5.9370    2.3703    0.0000 C   0  0  0  0  0  0  0  0  0  0  0  0
    3.7935    3.6078    0.0000 C   0  0  0  0  0  0  0  0  0  0  0  0
    2.3645   -1.3423    0.0000 C   0  0  0  0  0  0  0  0  0  0  0  0
    1.6500   -0.1048    0.0000 C   0  0  0  0  0  0  0  0  0  0  0  0
    4.5080    4.0203    0.0000 C   0  0  0  0  0  0  0  0  0  0  0  0
    1.6500   -0.9298    0.0000 C   0  0  0  0  0  0  0  0  0  0  0  0
    0.0000    0.0000    0.0000 H   0  0  0  0  0  0  0  0  0  0  0  0
    0.0000    0.0000    0.0000 H   0  0  0  0  0  0  0  0  0  0  0  0
    0.0000    0.0000    0.0000 H   0  0  0  0  0  0  0  0  0  0  0  0
    0.0000    0.0000    0.0000 H   0  0  0  0  0  0  0  0  0  0  0  0
    0.0000    0.0000    0.0000 H   0  0  0  0  0  0  0  0  0  0  0  0
    0.0000    0.0000    0.0000 H   0  0  0  0  0  0  0  0  0  0  0  0
    0.0000    0.0000    0.0000 H   0  0  0  0  0  0  0  0  0  0  0  0
    0.0000    0.0000    0.0000 H   0  0  0  0  0  0  0  0  0  0  0  0
    0.0000    0.0000    0.0000 H   0  0  0  0  0  0  0  0  0  0  0  0
    0.0000    0.0000    0.0000 H   0  0  0  0  0  0  0  0  0  0  0  0
    0.0000    0.0000    0.0000 H   0  0  0  0  0  0  0  0  0  0  0  0
    0.0000    0.0000    0.0000 H   0  0  0  0  0  0  0  0  0  0  0  0
    0.0000    0.0000    0.0000 H   0  0  0  0  0  0  0  0  0  0  0  0
    0.0000    0.0000    0.0000 H   0  0  0  0  0  0  0  0  0  0  0  0
    0.0000    0.0000    0.0000 H   0  0  0  0  0  0  0  0  0  0  0  0
    0.0000    0.0000    0.0000 H   0  0  0  0  0  0  0  0  0  0  0  0
    0.0000    0.0000    0.0000 H   0  0  0  0  0  0  0  0  0  0  0  0
    0.0000    0.0000    0.0000 H   0  0  0  0  0  0  0  0  0  0  0  0
    0.0000    0.0000    0.0000 H   0  0  0  0  0  0  0  0  0  0  0  0
    0.0000    0.0000    0.0000 H   0  0  0  0  0  0  0  0  0  0  0  0
    0.0000    0.0000    0.0000 H   0  0  0  0  0  0  0  0  0  0  0  0
    0.0000    0.0000    0.0000 H   0  0  0  0  0  0  0  0  0  0  0  0
    0.0000    0.0000    0.0000 H   0  0  0  0  0  0  0  0  0  0  0  0
    0.0000    0.0000    0.0000 H   0  0  0  0  0  0  0  0  0  0  0  0
    0.0000    0.0000    0.0000 H   0  0  0  0  0  0  0  0  0  0  0  0
    0.0000    0.0000    0.0000 H   0  0  0  0  0  0  0  0  0  0  0  0
    0.0000    0.0000    0.0000 H   0  0  0  0  0  0  0  0  0  0  0  0
    0.0000    0.0000    0.0000 H   0  0  0  0  0  0  0  0  0  0  0  0
    0.0000    0.0000    0.0000 H   0  0  0  0  0  0  0  0  0  0  0  0
    0.0000    0.0000    0.0000 H   0  0  0  0  0  0  0  0  0  0  0  0
    0.0000    0.0000    0.0000 H   0  0  0  0  0  0  0  0  0  0  0  0
    0.0000    0.0000    0.0000 H   0  0  0  0  0  0  0  0  0  0  0  0
    0.0000    0.0000    0.0000 H   0  0  0  0  0  0  0  0  0  0  0  0
    0.0000    0.0000    0.0000 H   0  0  0  0  0  0  0  0  0  0  0  0
    0.0000    0.0000    0.0000 H   0  0  0  0  0  0  0  0  0  0  0  0
    0.0000    0.0000    0.0000 H   0  0  0  0  0  0  0  0  0  0  0  0
    0.0000    0.0000    0.0000 H   0  0  0  0  0  0  0  0  0  0  0  0
    0.0000    0.0000    0.0000 H   0  0  0  0  0  0  0  0  0  0  0  0
    0.0000    0.0000    0.0000 H   0  0  0  0  0  0  0  0  0  0  0  0
    0.0000    0.0000    0.0000 H   0  0  0  0  0  0  0  0  0  0  0  0
    0.0000    0.0000    0.0000 H   0  0  0  0  0  0  0  0  0  0  0  0
    0.0000    0.0000    0.0000 H   0  0  0  0  0  0  0  0  0  0  0  0
    0.0000    0.0000    0.0000 H   0  0  0  0  0  0  0  0  0  0  0  0
    0.0000    0.0000    0.0000 H   0  0  0  0  0  0  0  0  0  0  0  0
    0.0000    0.0000    0.0000 H   0  0  0  0  0  0  0  0  0  0  0  0
  1 23  1  0
  1 29  1  0
  2 19  2  0
 20  3  1  1
  4 27  2  0
  5 34  1  0
  6 12  1  0
  6 15  1  0
  6 18  1  0
  7 19  1  0
  7 22  1  0
 21  8  1  6
  8 27  1  0
  9 10  1  0
  9 11  1  0
  9 13  1  0
 10 12  1  0
 10 14  1  0
 11 15  1  0
 13 16  1  0
 14 17  1  0
 15 19  1  1
 16 17  1  0
 18 20  1  0
 20 21  1  0
 21 23  1  0
 22 24  1  0
 22 25  1  0
 22 26  1  0
 27 28  1  0
 28 30  2  0
 28 31  1  0
 29 32  2  0
 29 33  1  0
 30 34  1  0
 30 35  1  0
 31 36  2  0
 32 37  1  0
 33 38  2  0
 34 39  2  0
 36 39  1  0
 37 40  2  0
 38 40  1  0
  3 41  1  0
  5 42  1  0
  7 43  1  0
  8 44  1  0
  9 45  1  6
 10 46  1  6
 11 47  1  0
 11 48  1  0
 12 49  1  0
 12 50  1  0
 13 51  1  0
 13 52  1  0
 14 53  1  0
 14 54  1  0
 15 55  1  0
 16 56  1  0
 16 57  1  0
 17 58  1  0
 17 59  1  0
 18 60  1  0
 18 61  1  0
 20 62  1  0
 21 63  1  0
 23 64  1  0
 23 65  1  0
 24 66  1  0
 24 67  1  0
 24 68  1  0
 25 69  1  0
 25 70  1  0
 25 71  1  0
 26 72  1  0
 26 73  1  0
 26 74  1  0
 31 75  1  0
 32 76  1  0
 33 77  1  0
 35 78  1  0
 35 79  1  0
 35 80  1  0
 36 81  1  0
 37 82  1  0
 38 83  1  0
 39 84  1  0
 40 85  1  0
M  END
>  <ALOGPS_LOGP>  (1) 
4.61

>  <ALOGPS_LOGS>  (1) 
-5.47

>  <ALOGPS_SOLUBILITY>  (1) 
1.91e-03 g/l

>  <DATABASE_ID>  (1) 
DB00220

>  <DATABASE_NAME>  (1) 
drugbank

>  <DRUGBANK_ID>  (1) 
DB00220

>  <DRUG_GROUPS>  (1) 
approved

>  <EXACT_MASS>  (1) 
567.313077633

>  <FORMULA>  (1) 
C32H45N3O4S

>  <GENERIC_NAME>  (1) 
Nelfinavir

>  <INCHI_IDENTIFIER>  (1) 
InChI=1S/C32H45N3O4S/c1-21-25(15-10-16-28(21)36)30(38)33-26(20-40-24-13-6-5-7-14-24)29(37)19-35-18-23-12-9-8-11-22(23)17-27(35)31(39)34-32(2,3)4/h5-7,10,13-16,22-23,26-27,29,36-37H,8-9,11-12,17-20H2,1-4H3,(H,33,38)(H,34,39)/t22-,23+,26-,27-,29+/m0/s1

>  <INCHI_KEY>  (1) 
QAGYKUNXZHXKMR-HKWSIXNMSA-N

>  <JCHEM_ACCEPTOR_COUNT>  (1) 
5

>  <JCHEM_AVERAGE_POLARIZABILITY>  (1) 
63.80175119669938

>  <JCHEM_BIOAVAILABILITY>  (1) 
1

>  <JCHEM_DONOR_COUNT>  (1) 
4

>  <JCHEM_FORMAL_CHARGE>  (1) 
0

>  <JCHEM_GHOSE_FILTER>  (1) 
0

>  <JCHEM_IUPAC>  (1) 
(3S,4aS,8aS)-N-tert-butyl-2-[(2R,3R)-2-hydroxy-3-[(3-hydroxy-2-methylphenyl)formamido]-4-(phenylsulfanyl)butyl]-decahydroisoquinoline-3-carboxamide

>  <JCHEM_LOGP>  (1) 
4.718828143297151

>  <JCHEM_MDDR_LIKE_RULE>  (1) 
1

>  <JCHEM_NUMBER_OF_RINGS>  (1) 
4

>  <JCHEM_PHYSIOLOGICAL_CHARGE>  (1) 
1

>  <JCHEM_PKA>  (1) 
14.133902964318661

>  <JCHEM_PKA_STRONGEST_ACIDIC>  (1) 
9.317773751033906

>  <JCHEM_PKA_STRONGEST_BASIC>  (1) 
8.177132492136975

>  <JCHEM_POLAR_SURFACE_AREA>  (1) 
101.89999999999999

>  <JCHEM_REFRACTIVITY>  (1) 
162.67449999999994

>  <JCHEM_ROTATABLE_BOND_COUNT>  (1) 
10

>  <JCHEM_RULE_OF_FIVE>  (1) 
0

>  <JCHEM_TRADITIONAL_IUPAC>  (1) 
nelfinavir

>  <JCHEM_VEBER_RULE>  (1) 
0

>  <MOLECULAR_WEIGHT>  (1) 
567.782

>  <PRODUCTS>  (1) 
Viracept; Viracept -250mg; Viracept -50mg

>  <SALTS>  (1) 
Nelfinavir mesylate

>  <SECONDARY_ACCESSION_NUMBERS>  (1) 
APRD00003

>  <SMILES>  (1) 
[H][C@@]12CCCC[C@]1([H])CN(C[C@@H](O)[C@H](CSC1=CC=CC=C1)NC(=O)C1=C(C)C(O)=CC=C1)[C@@H](C2)C(=O)NC(C)(C)C

$$$$
