582
     RDKit          2D

 39 41  0  0  1  0  0  0  0  0999 V2000
    1.6500   -0.4125    0.0000 F   0  0  0  0  0  0  0  0  0  0  0  0
    4.5079    0.4125    0.0000 F   0  0  0  0  0  0  0  0  0  0  0  0
    3.0790   -2.8875    0.0000 F   0  0  0  0  0  0  0  0  0  0  0  0
    2.2540    0.4125    0.0000 O   0  0  0  0  0  0  0  0  0  0  0  0
    4.5359   -0.1178    0.0000 N   0  0  0  0  0  0  0  0  0  0  0  0
    3.7934    2.4750    0.0000 N   0  0  0  0  0  0  0  0  0  0  0  0
    5.3364    0.0818    0.0000 N   0  0  0  0  0  0  0  0  0  0  0  0
    5.2433   -1.2499    0.0000 N   0  0  0  0  0  0  0  0  0  0  0  0
    5.2223    2.4750    0.0000 N   0  0  0  0  0  0  0  0  0  0  0  0
    3.0790    0.4125    0.0000 C   0  0  0  0  0  0  0  0  0  0  0  0
    3.0790    1.2375    0.0000 C   0  0  0  0  0  0  0  0  0  0  0  0
    3.9040    0.4125    0.0000 C   0  0  0  0  0  0  0  0  0  0  0  0
    3.0790   -0.4125    0.0000 C   0  0  0  0  0  0  0  0  0  0  0  0
    2.3645    1.6500    0.0000 C   0  0  0  0  0  0  0  0  0  0  0  0
    3.7934    1.6500    0.0000 C   0  0  0  0  0  0  0  0  0  0  0  0
    2.3645   -0.8250    0.0000 C   0  0  0  0  0  0  0  0  0  0  0  0
    3.7934   -0.8250    0.0000 C   0  0  0  0  0  0  0  0  0  0  0  0
    4.5079    1.2375    0.0000 C   0  0  0  0  0  0  0  0  0  0  0  0
    2.3645   -1.6500    0.0000 C   0  0  0  0  0  0  0  0  0  0  0  0
    3.7934   -1.6500    0.0000 C   0  0  0  0  0  0  0  0  0  0  0  0
    4.4784   -0.9408    0.0000 C   0  0  0  0  0  0  0  0  0  0  0  0
    3.0790   -2.0625    0.0000 C   0  0  0  0  0  0  0  0  0  0  0  0
    5.2223    1.6500    0.0000 C   0  0  0  0  0  0  0  0  0  0  0  0
    4.5079    2.8875    0.0000 C   0  0  0  0  0  0  0  0  0  0  0  0
    5.7736   -0.6178    0.0000 C   0  0  0  0  0  0  0  0  0  0  0  0
    0.0000    0.0000    0.0000 H   0  0  0  0  0  0  0  0  0  0  0  0
    0.0000    0.0000    0.0000 H   0  0  0  0  0  0  0  0  0  0  0  0
    0.0000    0.0000    0.0000 H   0  0  0  0  0  0  0  0  0  0  0  0
    0.0000    0.0000    0.0000 H   0  0  0  0  0  0  0  0  0  0  0  0
    0.0000    0.0000    0.0000 H   0  0  0  0  0  0  0  0  0  0  0  0
    0.0000    0.0000    0.0000 H   0  0  0  0  0  0  0  0  0  0  0  0
    0.0000    0.0000    0.0000 H   0  0  0  0  0  0  0  0  0  0  0  0
    0.0000    0.0000    0.0000 H   0  0  0  0  0  0  0  0  0  0  0  0
    0.0000    0.0000    0.0000 H   0  0  0  0  0  0  0  0  0  0  0  0
    0.0000    0.0000    0.0000 H   0  0  0  0  0  0  0  0  0  0  0  0
    0.0000    0.0000    0.0000 H   0  0  0  0  0  0  0  0  0  0  0  0
    0.0000    0.0000    0.0000 H   0  0  0  0  0  0  0  0  0  0  0  0
    0.0000    0.0000    0.0000 H   0  0  0  0  0  0  0  0  0  0  0  0
    0.0000    0.0000    0.0000 H   0  0  0  0  0  0  0  0  0  0  0  0
  1 16  1  0
  2 18  1  0
  3 22  1  0
 10  4  1  1
  5  7  1  0
  5 12  1  0
  5 21  1  0
  6 15  2  0
  6 24  1  0
  7 25  2  0
  8 21  2  0
  8 25  1  0
  9 23  1  0
  9 24  2  0
 10 11  1  0
 10 12  1  0
 10 13  1  0
 11 14  1  1
 11 15  1  0
 13 16  2  0
 13 17  1  0
 15 18  1  0
 16 19  1  0
 17 20  2  0
 18 23  2  0
 19 22  2  0
 20 22  1  0
  4 26  1  0
 11 27  1  0
 12 28  1  0
 12 29  1  0
 14 30  1  0
 14 31  1  0
 14 32  1  0
 17 33  1  0
 19 34  1  0
 20 35  1  0
 21 36  1  0
 23 37  1  0
 24 38  1  0
 25 39  1  0
M  END
>  <ALOGPS_LOGP>  (1) 
1.65

>  <ALOGPS_LOGS>  (1) 
-3.55

>  <ALOGPS_SOLUBILITY>  (1) 
9.78e-02 g/l

>  <DATABASE_ID>  (1) 
DB00582

>  <DATABASE_NAME>  (1) 
drugbank

>  <DRUGBANK_ID>  (1) 
DB00582

>  <DRUG_GROUPS>  (1) 
approved; investigational

>  <EXACT_MASS>  (1) 
349.11504471

>  <FORMULA>  (1) 
C16H14F3N5O

>  <GENERIC_NAME>  (1) 
Voriconazole

>  <INCHI_IDENTIFIER>  (1) 
InChI=1S/C16H14F3N5O/c1-10(15-14(19)5-20-7-22-15)16(25,6-24-9-21-8-23-24)12-3-2-11(17)4-13(12)18/h2-5,7-10,25H,6H2,1H3/t10-,16+/m0/s1

>  <INCHI_KEY>  (1) 
BCEHBSKCWLPMDN-MGPLVRAMSA-N

>  <JCHEM_ACCEPTOR_COUNT>  (1) 
5

>  <JCHEM_AVERAGE_POLARIZABILITY>  (1) 
30.54426257953428

>  <JCHEM_BIOAVAILABILITY>  (1) 
1

>  <JCHEM_DONOR_COUNT>  (1) 
1

>  <JCHEM_FORMAL_CHARGE>  (1) 
0

>  <JCHEM_GHOSE_FILTER>  (1) 
1

>  <JCHEM_IUPAC>  (1) 
(2R,3S)-2-(2,4-difluorophenyl)-3-(5-fluoropyrimidin-4-yl)-1-(1H-1,2,4-triazol-1-yl)butan-2-ol

>  <JCHEM_LOGP>  (1) 
1.8230325923333337

>  <JCHEM_MDDR_LIKE_RULE>  (1) 
0

>  <JCHEM_NUMBER_OF_RINGS>  (1) 
3

>  <JCHEM_PHYSIOLOGICAL_CHARGE>  (1) 
0

>  <JCHEM_PKA_STRONGEST_ACIDIC>  (1) 
12.708208344255155

>  <JCHEM_PKA_STRONGEST_BASIC>  (1) 
2.268914242488986

>  <JCHEM_POLAR_SURFACE_AREA>  (1) 
76.72

>  <JCHEM_REFRACTIVITY>  (1) 
95.27799999999999

>  <JCHEM_ROTATABLE_BOND_COUNT>  (1) 
5

>  <JCHEM_RULE_OF_FIVE>  (1) 
1

>  <JCHEM_TRADITIONAL_IUPAC>  (1) 
voriconazole

>  <JCHEM_VEBER_RULE>  (1) 
0

>  <MOLECULAR_WEIGHT>  (1) 
349.3105

>  <PRODUCTS>  (1) 
Ach-voriconazole; Apo-voriconazole; Auro-voriconazole; Mylan-voriconazole; PMS-voriconazole; Sandoz Voriconazole; Teva-voriconazole; Vfend; Vfend for Injection; Voriconazole; Voriconazole Accord; Voriconazole for Injection

>  <SECONDARY_ACCESSION_NUMBERS>  (1) 
APRD00543

>  <SMILES>  (1) 
C[C@@H](C1=NC=NC=C1F)[C@](O)(CN1C=NC=N1)C1=C(F)C=C(F)C=C1

>  <SYNONYMS>  (1) 
VCZ

$$$$
