
     RDKit          2D

 46 48  0  0  0  0  0  0  0  0999 V2000
   -2.8578    1.0312    0.0000 C   0  0  0  0  0  0  0  0  0  0  0  0
   -2.1434    1.4437    0.0000 C   0  0  0  0  0  0  0  0  0  0  0  0
    0.7144   -2.6812    0.0000 C   0  0  0  0  0  0  0  0  0  0  0  0
    1.4289   -2.2687    0.0000 C   0  0  0  0  0  0  0  0  0  0  0  0
    0.0000   -2.2687    0.0000 C   0  0  0  0  0  0  0  0  0  0  0  0
    0.0000    2.6812    0.0000 C   0  0  0  0  0  0  0  0  0  0  0  0
    0.7144    2.2687    0.0000 C   0  0  0  0  0  0  0  0  0  0  0  0
    1.4289   -1.4437    0.0000 C   0  0  0  0  0  0  0  0  0  0  0  0
    0.0000   -1.4437    0.0000 C   0  0  0  0  0  0  0  0  0  0  0  0
   -0.7144    2.2687    0.0000 C   0  0  0  0  0  0  0  0  0  0  0  0
    0.7144    1.4437    0.0000 C   0  0  0  0  0  0  0  0  0  0  0  0
    2.8578    1.0312    0.0000 C   0  0  0  0  0  0  0  0  0  0  0  0
    2.1434    1.4437    0.0000 C   0  0  0  0  0  0  0  0  0  0  0  0
    2.1434   -0.2062    0.0000 C   0  0  0  0  0  0  0  0  0  0  0  0
    0.7144   -1.0312    0.0000 C   0  0  0  0  0  0  0  0  0  0  0  0
   -0.7144    1.4437    0.0000 C   0  0  0  0  0  0  0  0  0  0  0  0
    0.0000    1.0312    0.0000 C   0  0  0  0  0  0  0  0  0  0  0  0
    1.4289    0.2062    0.0000 C   0  0  0  0  0  0  0  0  0  0  0  0
    0.7144   -0.2062    0.0000 C   0  0  0  0  0  0  0  0  0  0  0  0
    2.8578    0.2062    0.0000 N   0  0  0  0  0  0  0  0  0  0  0  0
   -1.4289    1.0312    0.0000 O   0  0  0  0  0  0  0  0  0  0  0  0
    1.4289    1.0312    0.0000 O   0  0  0  0  0  0  0  0  0  0  0  0
    0.0000    0.2062    0.0000 O   0  0  0  0  0  0  0  0  0  0  0  0
    0.0000    0.0000    0.0000 H   0  0  0  0  0  0  0  0  0  0  0  0
    0.0000    0.0000    0.0000 H   0  0  0  0  0  0  0  0  0  0  0  0
    0.0000    0.0000    0.0000 H   0  0  0  0  0  0  0  0  0  0  0  0
    0.0000    0.0000    0.0000 H   0  0  0  0  0  0  0  0  0  0  0  0
    0.0000    0.0000    0.0000 H   0  0  0  0  0  0  0  0  0  0  0  0
    0.0000    0.0000    0.0000 H   0  0  0  0  0  0  0  0  0  0  0  0
    0.0000    0.0000    0.0000 H   0  0  0  0  0  0  0  0  0  0  0  0
    0.0000    0.0000    0.0000 H   0  0  0  0  0  0  0  0  0  0  0  0
    0.0000    0.0000    0.0000 H   0  0  0  0  0  0  0  0  0  0  0  0
    0.0000    0.0000    0.0000 H   0  0  0  0  0  0  0  0  0  0  0  0
    0.0000    0.0000    0.0000 H   0  0  0  0  0  0  0  0  0  0  0  0
    0.0000    0.0000    0.0000 H   0  0  0  0  0  0  0  0  0  0  0  0
    0.0000    0.0000    0.0000 H   0  0  0  0  0  0  0  0  0  0  0  0
    0.0000    0.0000    0.0000 H   0  0  0  0  0  0  0  0  0  0  0  0
    0.0000    0.0000    0.0000 H   0  0  0  0  0  0  0  0  0  0  0  0
    0.0000    0.0000    0.0000 H   0  0  0  0  0  0  0  0  0  0  0  0
    0.0000    0.0000    0.0000 H   0  0  0  0  0  0  0  0  0  0  0  0
    0.0000    0.0000    0.0000 H   0  0  0  0  0  0  0  0  0  0  0  0
    0.0000    0.0000    0.0000 H   0  0  0  0  0  0  0  0  0  0  0  0
    0.0000    0.0000    0.0000 H   0  0  0  0  0  0  0  0  0  0  0  0
    0.0000    0.0000    0.0000 H   0  0  0  0  0  0  0  0  0  0  0  0
    0.0000    0.0000    0.0000 H   0  0  0  0  0  0  0  0  0  0  0  0
    0.0000    0.0000    0.0000 H   0  0  0  0  0  0  0  0  0  0  0  0
  2  1  1  0
  4  3  2  0
  5  3  1  0
  7  6  2  0
  8  4  1  0
  9  5  2  0
 10  6  1  0
 11  7  1  0
 13 12  1  0
 15  8  2  0
 15  9  1  0
 16 10  2  0
 17 11  2  0
 17 16  1  0
 18 14  1  0
 19 15  1  1
 18 19  1  0
 20 12  1  0
 20 14  1  0
 21  2  1  0
 21 16  1  0
 22 13  1  0
 22 18  1  0
 23 17  1  0
 19 23  1  0
  1 24  1  0
  1 25  1  0
  1 26  1  0
  2 27  1  0
  2 28  1  0
  3 29  1  0
  4 30  1  0
  5 31  1  0
  6 32  1  0
  7 33  1  0
  8 34  1  0
  9 35  1  0
 10 36  1  0
 11 37  1  0
 12 38  1  0
 12 39  1  0
 13 40  1  0
 13 41  1  0
 14 42  1  0
 14 43  1  0
 18 44  1  1
 19 45  1  0
 20 46  1  0
M  END
>  <ALOGPS_LOGP>  (1) 
3.06

>  <ALOGPS_LOGS>  (1) 
-4.15

>  <ALOGPS_SOLUBILITY>  (1) 
2.23e-02 g/l

>  <DATABASE_ID>  (1) 
DB00234

>  <DATABASE_NAME>  (1) 
drugbank

>  <DRUGBANK_ID>  (1) 
DB00234

>  <DRUG_GROUPS>  (1) 
approved; investigational

>  <EXACT_MASS>  (1) 
313.167793605

>  <FORMULA>  (1) 
C19H23NO3

>  <GENERIC_NAME>  (1) 
Reboxetine

>  <INCHI_IDENTIFIER>  (1) 
InChI=1S/C19H23NO3/c1-2-21-16-10-6-7-11-17(16)23-19(15-8-4-3-5-9-15)18-14-20-12-13-22-18/h3-11,18-20H,2,12-14H2,1H3/t18-,19-/m1/s1

>  <INCHI_KEY>  (1) 
CBQGYUDMJHNJBX-RTBURBONSA-N

>  <INTERNATIONAL_BRANDS>  (1) 
Davedax; Edronax; Norebox; Prolift; Solvex; Vestra

>  <JCHEM_ACCEPTOR_COUNT>  (1) 
4

>  <JCHEM_ATOM_COUNT>  (1) 
46

>  <JCHEM_AVERAGE_POLARIZABILITY>  (1) 
34.506777670468736

>  <JCHEM_BIOAVAILABILITY>  (1) 
1

>  <JCHEM_DONOR_COUNT>  (1) 
1

>  <JCHEM_FORMAL_CHARGE>  (1) 
0

>  <JCHEM_GHOSE_FILTER>  (1) 
1

>  <JCHEM_IUPAC>  (1) 
(2R)-2-[(R)-(2-ethoxyphenoxy)(phenyl)methyl]morpholine

>  <JCHEM_LOGP>  (1) 
3.27581463

>  <JCHEM_MDDR_LIKE_RULE>  (1) 
1

>  <JCHEM_NUMBER_OF_RINGS>  (1) 
3

>  <JCHEM_PHYSIOLOGICAL_CHARGE>  (1) 
1

>  <JCHEM_PKA_STRONGEST_BASIC>  (1) 
7.910514199220149

>  <JCHEM_POLAR_SURFACE_AREA>  (1) 
39.72

>  <JCHEM_REFRACTIVITY>  (1) 
89.4849

>  <JCHEM_ROTATABLE_BOND_COUNT>  (1) 
6

>  <JCHEM_RULE_OF_FIVE>  (1) 
1

>  <JCHEM_TRADITIONAL_IUPAC>  (1) 
reboxetine

>  <JCHEM_VEBER_RULE>  (1) 
1

>  <MOLECULAR_WEIGHT>  (1) 
313.397

>  <SALTS>  (1) 
Reboxetine mesilate

>  <SECONDARY_ACCESSION_NUMBERS>  (1) 
APRD00198

>  <SMILES>  (1) 
[H][C@@](OC1=CC=CC=C1OCC)(C1=CC=CC=C1)[C@@]1([H])CNCCO1

$$$$
