77993
     RDKit          2D

 53 56  0  0  1  0  0  0  0  0999 V2000
    3.7935    0.1625    0.0000 S   0  0  0  0  0  0  0  0  0  0  0  0
    3.3810   -0.5519    0.0000 O   0  0  0  0  0  0  0  0  0  0  0  0
    4.2060    0.8770    0.0000 O   0  0  0  0  0  0  0  0  0  0  0  0
    9.8223    0.4027    0.0000 N   0  0  0  0  0  0  0  0  0  0  0  0
    8.1466   -1.3264    0.0000 N   0  0  0  0  0  0  0  0  0  0  0  0
    9.2102    0.9558    0.0000 C   0  0  0  0  0  0  0  0  0  0  0  0
    9.5470    1.7089    0.0000 C   0  0  0  0  0  0  0  0  0  0  0  0
   10.3673    1.6212    0.0000 C   0  0  0  0  0  0  0  0  0  0  0  0
   10.5375    0.8140    0.0000 C   0  0  0  0  0  0  0  0  0  0  0  0
    8.4029    0.7857    0.0000 C   0  0  0  0  0  0  0  0  0  0  0  0
    8.1466    0.0015    0.0000 C   0  0  0  0  0  0  0  0  0  0  0  0
    9.7346   -0.4177    0.0000 C   0  0  0  0  0  0  0  0  0  0  0  0
    7.3659   -0.2500    0.0000 C   0  0  0  0  0  0  0  0  0  0  0  0
    8.6280   -0.6625    0.0000 C   0  0  0  0  0  0  0  0  0  0  0  0
    7.3659   -1.0750    0.0000 C   0  0  0  0  0  0  0  0  0  0  0  0
    6.6515    0.1625    0.0000 C   0  0  0  0  0  0  0  0  0  0  0  0
    5.9370   -0.2500    0.0000 C   0  0  0  0  0  0  0  0  0  0  0  0
    6.6515   -1.4875    0.0000 C   0  0  0  0  0  0  0  0  0  0  0  0
    5.2224    0.1625    0.0000 C   0  0  0  0  0  0  0  0  0  0  0  0
    5.9370   -1.0750    0.0000 C   0  0  0  0  0  0  0  0  0  0  0  0
    4.5080   -0.2500    0.0000 C   0  0  0  0  0  0  0  0  0  0  0  0
    3.0790    0.5750    0.0000 C   0  0  0  0  0  0  0  0  0  0  0  0
    2.3645    0.1625    0.0000 C   0  0  0  0  0  0  0  0  0  0  0  0
    3.0790    1.4001    0.0000 C   0  0  0  0  0  0  0  0  0  0  0  0
    1.6500    0.5750    0.0000 C   0  0  0  0  0  0  0  0  0  0  0  0
    2.3645    1.8126    0.0000 C   0  0  0  0  0  0  0  0  0  0  0  0
    1.6500    1.4001    0.0000 C   0  0  0  0  0  0  0  0  0  0  0  0
    0.0000    0.0000    0.0000 H   0  0  0  0  0  0  0  0  0  0  0  0
    0.0000    0.0000    0.0000 H   0  0  0  0  0  0  0  0  0  0  0  0
    0.0000    0.0000    0.0000 H   0  0  0  0  0  0  0  0  0  0  0  0
    0.0000    0.0000    0.0000 H   0  0  0  0  0  0  0  0  0  0  0  0
    0.0000    0.0000    0.0000 H   0  0  0  0  0  0  0  0  0  0  0  0
    0.0000    0.0000    0.0000 H   0  0  0  0  0  0  0  0  0  0  0  0
    0.0000    0.0000    0.0000 H   0  0  0  0  0  0  0  0  0  0  0  0
    0.0000    0.0000    0.0000 H   0  0  0  0  0  0  0  0  0  0  0  0
    0.0000    0.0000    0.0000 H   0  0  0  0  0  0  0  0  0  0  0  0
    0.0000    0.0000    0.0000 H   0  0  0  0  0  0  0  0  0  0  0  0
    0.0000    0.0000    0.0000 H   0  0  0  0  0  0  0  0  0  0  0  0
    0.0000    0.0000    0.0000 H   0  0  0  0  0  0  0  0  0  0  0  0
    0.0000    0.0000    0.0000 H   0  0  0  0  0  0  0  0  0  0  0  0
    0.0000    0.0000    0.0000 H   0  0  0  0  0  0  0  0  0  0  0  0
    0.0000    0.0000    0.0000 H   0  0  0  0  0  0  0  0  0  0  0  0
    0.0000    0.0000    0.0000 H   0  0  0  0  0  0  0  0  0  0  0  0
    0.0000    0.0000    0.0000 H   0  0  0  0  0  0  0  0  0  0  0  0
    0.0000    0.0000    0.0000 H   0  0  0  0  0  0  0  0  0  0  0  0
    0.0000    0.0000    0.0000 H   0  0  0  0  0  0  0  0  0  0  0  0
    0.0000    0.0000    0.0000 H   0  0  0  0  0  0  0  0  0  0  0  0
    0.0000    0.0000    0.0000 H   0  0  0  0  0  0  0  0  0  0  0  0
    0.0000    0.0000    0.0000 H   0  0  0  0  0  0  0  0  0  0  0  0
    0.0000    0.0000    0.0000 H   0  0  0  0  0  0  0  0  0  0  0  0
    0.0000    0.0000    0.0000 H   0  0  0  0  0  0  0  0  0  0  0  0
    0.0000    0.0000    0.0000 H   0  0  0  0  0  0  0  0  0  0  0  0
    0.0000    0.0000    0.0000 H   0  0  0  0  0  0  0  0  0  0  0  0
  1  2  2  0
  1  3  2  0
  1 21  1  0
  1 22  1  0
  4  6  1  0
  4  9  1  0
  4 12  1  0
  5 14  1  0
  5 15  1  0
  6  7  1  0
  6 10  1  1
  7  8  1  0
  8  9  1  0
 10 11  1  0
 11 13  1  0
 11 14  2  0
 13 15  2  0
 13 16  1  0
 15 18  1  0
 16 17  2  0
 17 19  1  0
 17 20  1  0
 18 20  2  0
 19 21  1  0
 22 23  2  0
 22 24  1  0
 23 25  1  0
 24 26  2  0
 25 27  2  0
 26 27  1  0
  5 28  1  0
  6 29  1  0
  7 30  1  0
  7 31  1  0
  8 32  1  0
  8 33  1  0
  9 34  1  0
  9 35  1  0
 10 36  1  0
 10 37  1  0
 12 38  1  0
 12 39  1  0
 12 40  1  0
 14 41  1  0
 16 42  1  0
 18 43  1  0
 19 44  1  0
 19 45  1  0
 20 46  1  0
 21 47  1  0
 21 48  1  0
 23 49  1  0
 24 50  1  0
 25 51  1  0
 26 52  1  0
 27 53  1  0
M  END
>  <ALOGPS_LOGP>  (1) 
3.84

>  <ALOGPS_LOGS>  (1) 
-5.51

>  <ALOGPS_SOLUBILITY>  (1) 
1.18e-03 g/l

>  <DATABASE_ID>  (1) 
DB00216

>  <DATABASE_NAME>  (1) 
drugbank

>  <DRUGBANK_ID>  (1) 
DB00216

>  <DRUG_GROUPS>  (1) 
approved; investigational

>  <EXACT_MASS>  (1) 
382.171498776

>  <FORMULA>  (1) 
C22H26N2O2S

>  <GENERIC_NAME>  (1) 
Eletriptan

>  <INCHI_IDENTIFIER>  (1) 
InChI=1S/C22H26N2O2S/c1-24-12-5-6-19(24)15-18-16-23-22-10-9-17(14-21(18)22)11-13-27(25,26)20-7-3-2-4-8-20/h2-4,7-10,14,16,19,23H,5-6,11-13,15H2,1H3/t19-/m1/s1

>  <INCHI_KEY>  (1) 
PWVXXGRKLHYWKM-LJQANCHMSA-N

>  <JCHEM_ACCEPTOR_COUNT>  (1) 
3

>  <JCHEM_AVERAGE_POLARIZABILITY>  (1) 
42.98974308379417

>  <JCHEM_BIOAVAILABILITY>  (1) 
1

>  <JCHEM_DONOR_COUNT>  (1) 
1

>  <JCHEM_FORMAL_CHARGE>  (1) 
0

>  <JCHEM_GHOSE_FILTER>  (1) 
1

>  <JCHEM_IUPAC>  (1) 
5-[2-(benzenesulfonyl)ethyl]-3-{[(2R)-1-methylpyrrolidin-2-yl]methyl}-1H-indole

>  <JCHEM_LOGP>  (1) 
3.7732624000000015

>  <JCHEM_MDDR_LIKE_RULE>  (1) 
1

>  <JCHEM_NUMBER_OF_RINGS>  (1) 
4

>  <JCHEM_PHYSIOLOGICAL_CHARGE>  (1) 
1

>  <JCHEM_PKA_STRONGEST_ACIDIC>  (1) 
17.110288399657563

>  <JCHEM_PKA_STRONGEST_BASIC>  (1) 
8.373167080149452

>  <JCHEM_POLAR_SURFACE_AREA>  (1) 
53.17

>  <JCHEM_REFRACTIVITY>  (1) 
110.94160000000001

>  <JCHEM_ROTATABLE_BOND_COUNT>  (1) 
6

>  <JCHEM_RULE_OF_FIVE>  (1) 
1

>  <JCHEM_TRADITIONAL_IUPAC>  (1) 
eletriptan

>  <JCHEM_VEBER_RULE>  (1) 
0

>  <MOLECULAR_WEIGHT>  (1) 
382.519

>  <PRODUCTS>  (1) 
Apo-eletriptan; Eletriptan; Eletriptan Hydrobromide; Eletriptan hydrobromide; Gd-eletriptan; PMS-eletriptan; Relpax; Teva-eletriptan

>  <SALTS>  (1) 
Eletriptan hydrobromide; Eletriptan hydrobromide monohydrate

>  <SECONDARY_ACCESSION_NUMBERS>  (1) 
APRD00945

>  <SMILES>  (1) 
CN1CCC[C@@H]1CC1=CNC2=C1C=C(CCS(=O)(=O)C1=CC=CC=C1)C=C2

$$$$
