
     RDKit          2D

293298  0  0  1  0  0  0  0  0999 V2000
  -19.1798  -19.8286    0.0000 N   0  0  0  0  0  0  0  0  0  0  0  0
  -18.5326  -19.3169    0.0000 C   0  0  0  0  0  0  0  0  0  0  0  0
  -17.7659  -19.6216    0.0000 N   0  0  0  0  0  0  0  0  0  0  0  0
  -18.6521  -18.5006    0.0000 N   0  0  0  0  0  0  0  0  0  0  0  0
  -19.4188  -18.1960    0.0000 C   0  0  0  0  0  0  0  0  0  0  0  0
  -19.5383  -17.3797    0.0000 C   0  0  0  0  0  0  0  0  0  0  0  0
  -20.3050  -17.0751    0.0000 C   0  0  0  0  0  0  0  0  0  0  0  0
  -20.4245  -16.2588    0.0000 C   0  0  0  0  0  0  0  0  0  0  0  0
  -21.1912  -15.9541    0.0000 N   0  0  0  0  0  0  0  0  0  0  0  0
  -21.8384  -16.4658    0.0000 C   0  0  0  0  0  0  0  0  0  0  0  0
  -21.7189  -17.2821    0.0000 O   0  0  0  0  0  0  0  0  0  0  0  0
  -22.6051  -16.1611    0.0000 C   0  0  0  0  0  0  0  0  0  0  0  0
  -23.3022  -16.6023    0.0000 C   0  0  0  0  0  0  0  0  0  0  0  0
  -23.9372  -16.0757    0.0000 C   0  0  0  0  0  0  0  0  0  0  0  0
  -23.6326  -15.3090    0.0000 C   0  0  0  0  0  0  0  0  0  0  0  0
  -22.8093  -15.3618    0.0000 N   0  0  0  0  0  0  0  0  0  0  0  0
  -22.2826  -14.7268    0.0000 C   0  0  0  0  0  0  0  0  0  0  0  0
  -21.4693  -14.8653    0.0000 O   0  0  0  0  0  0  0  0  0  0  0  0
  -22.5692  -13.9531    0.0000 C   0  0  0  0  0  0  0  0  0  0  0  0
  -22.0426  -13.3181    0.0000 N   0  0  0  0  0  0  0  0  0  0  0  0
  -23.3825  -13.8146    0.0000 C   0  0  0  0  0  0  0  0  0  0  0  0
  -23.6691  -13.0409    0.0000 C   0  0  0  0  0  0  0  0  0  0  0  0
  -24.4824  -12.9024    0.0000 C   0  0  0  0  0  0  0  0  0  0  0  0
  -24.7690  -12.1288    0.0000 C   0  0  0  0  0  0  0  0  0  0  0  0
  -24.2424  -11.4937    0.0000 C   0  0  0  0  0  0  0  0  0  0  0  0
  -23.4291  -11.6323    0.0000 C   0  0  0  0  0  0  0  0  0  0  0  0
  -23.1425  -12.4059    0.0000 C   0  0  0  0  0  0  0  0  0  0  0  0
  -19.7773  -15.7471    0.0000 C   0  0  0  0  0  0  0  0  0  0  0  0
  -19.8969  -14.9308    0.0000 O   0  0  0  0  0  0  0  0  0  0  0  0
  -19.0106  -16.0518    0.0000 N   0  0  0  0  0  0  0  0  0  0  0  0
  -18.8065  -16.8511    0.0000 C   0  0  0  0  0  0  0  0  0  0  0  0
  -17.9832  -16.9039    0.0000 C   0  0  0  0  0  0  0  0  0  0  0  0
  -17.6785  -16.1372    0.0000 C   0  0  0  0  0  0  0  0  0  0  0  0
  -18.3135  -15.6106    0.0000 C   0  0  0  0  0  0  0  0  0  0  0  0
  -18.2607  -14.7872    0.0000 C   0  0  0  0  0  0  0  0  0  0  0  0
  -17.5213  -14.4213    0.0000 O   0  0  0  0  0  0  0  0  0  0  0  0
  -18.9473  -14.3299    0.0000 N   0  0  0  0  0  0  0  0  0  0  0  0
  -18.8945  -13.5065    0.0000 C   0  0  0  0  0  0  0  0  0  0  0  0
  -18.1551  -13.1406    0.0000 C   0  0  0  0  0  0  0  0  0  0  0  0
  -18.1023  -12.3173    0.0000 O   0  0  0  0  0  0  0  0  0  0  0  0
  -17.4685  -13.5980    0.0000 N   0  0  0  0  0  0  0  0  0  0  0  0
  -16.7291  -13.2321    0.0000 C   0  0  0  0  0  0  0  0  0  0  0  0
  -16.0425  -13.6895    0.0000 C   0  0  0  0  0  0  0  0  0  0  0  0
  -16.0953  -14.5128    0.0000 O   0  0  0  0  0  0  0  0  0  0  0  0
  -15.3031  -13.3236    0.0000 N   0  0  0  0  0  0  0  0  0  0  0  0
  -14.6165  -13.7810    0.0000 C   0  0  0  0  0  0  0  0  0  0  0  0
  -13.8771  -13.4151    0.0000 C   0  0  0  0  0  0  0  0  0  0  0  0
  -13.8242  -12.5918    0.0000 O   0  0  0  0  0  0  0  0  0  0  0  0
  -13.1905  -13.8725    0.0000 N   0  0  0  0  0  0  0  0  0  0  0  0
  -12.4510  -13.5065    0.0000 C   0  0  0  0  0  0  0  0  0  0  0  0
  -11.7644  -13.9639    0.0000 C   0  0  0  0  0  0  0  0  0  0  0  0
  -11.8173  -14.7872    0.0000 O   0  0  0  0  0  0  0  0  0  0  0  0
  -11.0250  -13.5980    0.0000 N   0  0  0  0  0  0  0  0  0  0  0  0
  -10.3384  -14.0554    0.0000 C   0  0  0  0  0  0  0  0  0  0  0  0
  -10.3912  -14.8787    0.0000 C   0  0  0  0  0  0  0  0  0  0  0  0
   -9.7047  -15.3361    0.0000 C   0  0  0  0  0  0  0  0  0  0  0  0
   -9.7575  -16.1594    0.0000 N   0  0  0  0  0  0  0  0  0  0  0  0
   -8.9652  -14.9702    0.0000 O   0  0  0  0  0  0  0  0  0  0  0  0
   -9.5990  -13.6895    0.0000 C   0  0  0  0  0  0  0  0  0  0  0  0
   -9.5462  -12.8662    0.0000 O   0  0  0  0  0  0  0  0  0  0  0  0
   -8.9124  -14.1469    0.0000 N   0  0  0  0  0  0  0  0  0  0  0  0
   -8.1730  -13.7810    0.0000 C   0  0  0  0  0  0  0  0  0  0  0  0
   -7.4864  -14.2384    0.0000 C   0  0  0  0  0  0  0  0  0  0  0  0
   -7.5392  -15.0617    0.0000 O   0  0  0  0  0  0  0  0  0  0  0  0
   -6.7470  -13.8725    0.0000 N   0  0  0  0  0  0  0  0  0  0  0  0
   -6.0604  -14.3299    0.0000 C   0  0  0  0  0  0  0  0  0  0  0  0
   -6.1132  -15.1532    0.0000 C   0  0  0  0  0  0  0  0  0  0  0  0
   -5.4266  -15.6106    0.0000 C   0  0  0  0  0  0  0  0  0  0  0  0
   -5.4794  -16.4339    0.0000 O   0  0  0  0  0  0  0  0  0  0  0  0
   -4.6872  -15.2446    0.0000 O   0  0  0  0  0  0  0  0  0  0  0  0
   -5.3210  -13.9639    0.0000 C   0  0  0  0  0  0  0  0  0  0  0  0
   -5.2682  -13.1406    0.0000 O   0  0  0  0  0  0  0  0  0  0  0  0
   -4.6344  -14.4213    0.0000 N   0  0  0  0  0  0  0  0  0  0  0  0
   -3.8950  -14.0554    0.0000 C   0  0  0  0  0  0  0  0  0  0  0  0
   -3.2084  -14.5128    0.0000 C   0  0  0  0  0  0  0  0  0  0  0  0
   -3.2612  -15.3361    0.0000 C   0  0  0  0  0  0  0  0  0  0  0  0
   -2.5746  -15.7935    0.0000 C   0  0  0  0  0  0  0  0  0  0  0  0
   -2.6274  -16.6168    0.0000 C   0  0  0  0  0  0  0  0  0  0  0  0
   -3.3668  -16.9827    0.0000 C   0  0  0  0  0  0  0  0  0  0  0  0
   -4.0534  -16.5253    0.0000 C   0  0  0  0  0  0  0  0  0  0  0  0
   -4.0006  -15.7020    0.0000 C   0  0  0  0  0  0  0  0  0  0  0  0
   -3.8422  -13.2321    0.0000 C   0  0  0  0  0  0  0  0  0  0  0  0
   -4.5288  -12.7747    0.0000 O   0  0  0  0  0  0  0  0  0  0  0  0
   -3.1027  -12.8662    0.0000 N   0  0  0  0  0  0  0  0  0  0  0  0
   -2.4162  -13.3236    0.0000 C   0  0  0  0  0  0  0  0  0  0  0  0
   -2.4690  -14.1469    0.0000 C   0  0  0  0  0  0  0  0  0  0  0  0
   -1.7824  -14.6043    0.0000 C   0  0  0  0  0  0  0  0  0  0  0  0
   -1.8352  -15.4276    0.0000 C   0  0  0  0  0  0  0  0  0  0  0  0
   -2.2183  -16.1582    0.0000 O   0  0  0  0  0  0  0  0  0  0  0  0
   -1.1486  -15.8850    0.0000 O   0  0  0  0  0  0  0  0  0  0  0  0
   -1.6767  -12.9577    0.0000 C   0  0  0  0  0  0  0  0  0  0  0  0
   -1.6239  -12.1344    0.0000 O   0  0  0  0  0  0  0  0  0  0  0  0
   -0.9901  -13.4151    0.0000 N   0  0  0  0  0  0  0  0  0  0  0  0
   -0.2507  -13.0492    0.0000 C   0  0  0  0  0  0  0  0  0  0  0  0
   -0.1979  -12.2258    0.0000 C   0  0  0  0  0  0  0  0  0  0  0  0
    0.5415  -11.8599    0.0000 C   0  0  0  0  0  0  0  0  0  0  0  0
    0.5943  -11.0366    0.0000 C   0  0  0  0  0  0  0  0  0  0  0  0
   -0.0923  -10.5792    0.0000 O   0  0  0  0  0  0  0  0  0  0  0  0
    1.3337  -10.6707    0.0000 O   0  0  0  0  0  0  0  0  0  0  0  0
    0.4359  -13.5065    0.0000 C   0  0  0  0  0  0  0  0  0  0  0  0
    0.3831  -14.3299    0.0000 O   0  0  0  0  0  0  0  0  0  0  0  0
    1.1753  -13.1406    0.0000 N   0  0  0  0  0  0  0  0  0  0  0  0
    1.8619  -13.5980    0.0000 C   0  0  0  0  0  0  0  0  0  0  0  0
    1.8091  -14.4213    0.0000 C   0  0  0  0  0  0  0  0  0  0  0  0
    2.4957  -14.8787    0.0000 C   0  0  0  0  0  0  0  0  0  0  0  0
    1.0697  -14.7872    0.0000 C   0  0  0  0  0  0  0  0  0  0  0  0
    1.0168  -15.6106    0.0000 C   0  0  0  0  0  0  0  0  0  0  0  0
    2.6013  -13.2321    0.0000 C   0  0  0  0  0  0  0  0  0  0  0  0
    2.6541  -12.4088    0.0000 O   0  0  0  0  0  0  0  0  0  0  0  0
    3.2879  -13.6895    0.0000 N   0  0  0  0  0  0  0  0  0  0  0  0
    3.3214  -14.5138    0.0000 C   0  0  0  0  0  0  0  0  0  0  0  0
    4.1158  -14.7367    0.0000 C   0  0  0  0  0  0  0  0  0  0  0  0
    4.5732  -14.0501    0.0000 C   0  0  0  0  0  0  0  0  0  0  0  0
    4.0615  -13.4029    0.0000 C   0  0  0  0  0  0  0  0  0  0  0  0
    4.2843  -12.6085    0.0000 C   0  0  0  0  0  0  0  0  0  0  0  0
    5.0837  -12.4044    0.0000 O   0  0  0  0  0  0  0  0  0  0  0  0
    3.7078  -12.0184    0.0000 N   0  0  0  0  0  0  0  0  0  0  0  0
    3.9307  -11.2241    0.0000 C   0  0  0  0  0  0  0  0  0  0  0  0
    4.7300  -11.0199    0.0000 C   0  0  0  0  0  0  0  0  0  0  0  0
    4.9528  -10.2255    0.0000 C   0  0  0  0  0  0  0  0  0  0  0  0
    5.7522  -10.0214    0.0000 C   0  0  0  0  0  0  0  0  0  0  0  0
    5.9750   -9.2270    0.0000 O   0  0  0  0  0  0  0  0  0  0  0  0
    6.3287  -10.6115    0.0000 O   0  0  0  0  0  0  0  0  0  0  0  0
    3.3542  -10.6339    0.0000 C   0  0  0  0  0  0  0  0  0  0  0  0
    2.5548  -10.8381    0.0000 O   0  0  0  0  0  0  0  0  0  0  0  0
    3.5770   -9.8396    0.0000 N   0  0  0  0  0  0  0  0  0  0  0  0
    3.0005   -9.2494    0.0000 C   0  0  0  0  0  0  0  0  0  0  0  0
    2.2012   -9.4536    0.0000 C   0  0  0  0  0  0  0  0  0  0  0  0
    1.6247   -8.8635    0.0000 C   0  0  0  0  0  0  0  0  0  0  0  0
    0.8254   -9.0676    0.0000 C   0  0  0  0  0  0  0  0  0  0  0  0
    0.6025   -9.8620    0.0000 O   0  0  0  0  0  0  0  0  0  0  0  0
    0.2489   -8.4775    0.0000 O   0  0  0  0  0  0  0  0  0  0  0  0
    3.2234   -8.4551    0.0000 C   0  0  0  0  0  0  0  0  0  0  0  0
    4.0227   -8.2509    0.0000 O   0  0  0  0  0  0  0  0  0  0  0  0
    2.6469   -7.8649    0.0000 N   0  0  0  0  0  0  0  0  0  0  0  0
    2.8697   -7.0706    0.0000 C   0  0  0  0  0  0  0  0  0  0  0  0
    3.6690   -6.8664    0.0000 C   0  0  0  0  0  0  0  0  0  0  0  0
    3.8919   -6.0721    0.0000 C   0  0  0  0  0  0  0  0  0  0  0  0
    3.3154   -5.4819    0.0000 C   0  0  0  0  0  0  0  0  0  0  0  0
    3.5382   -4.6876    0.0000 C   0  0  0  0  0  0  0  0  0  0  0  0
    4.3375   -4.4834    0.0000 C   0  0  0  0  0  0  0  0  0  0  0  0
    4.5604   -3.6891    0.0000 O   0  0  0  0  0  0  0  0  0  0  0  0
    4.9140   -5.0736    0.0000 C   0  0  0  0  0  0  0  0  0  0  0  0
    4.6912   -5.8679    0.0000 C   0  0  0  0  0  0  0  0  0  0  0  0
    2.2932   -6.4805    0.0000 C   0  0  0  0  0  0  0  0  0  0  0  0
    1.4939   -6.6846    0.0000 O   0  0  0  0  0  0  0  0  0  0  0  0
    2.5160   -5.6861    0.0000 N   0  0  0  0  0  0  0  0  0  0  0  0
    1.9395   -5.0960    0.0000 C   0  0  0  0  0  0  0  0  0  0  0  0
    2.1624   -4.3016    0.0000 C   0  0  0  0  0  0  0  0  0  0  0  0
    1.5859   -3.7115    0.0000 C   0  0  0  0  0  0  0  0  0  0  0  0
    0.7865   -3.9157    0.0000 C   0  0  0  0  0  0  0  0  0  0  0  0
    1.8087   -2.9171    0.0000 C   0  0  0  0  0  0  0  0  0  0  0  0
    1.1402   -5.3002    0.0000 C   0  0  0  0  0  0  0  0  0  0  0  0
    0.5637   -4.7100    0.0000 O   0  0  0  0  0  0  0  0  0  0  0  0
    0.9174   -6.0945    0.0000 O   0  0  0  0  0  0  0  0  0  0  0  0
    0.0000    0.0000    0.0000 H   0  0  0  0  0  0  0  0  0  0  0  0
    0.0000    0.0000    0.0000 H   0  0  0  0  0  0  0  0  0  0  0  0
    0.0000    0.0000    0.0000 H   0  0  0  0  0  0  0  0  0  0  0  0
    0.0000    0.0000    0.0000 H   0  0  0  0  0  0  0  0  0  0  0  0
    0.0000    0.0000    0.0000 H   0  0  0  0  0  0  0  0  0  0  0  0
    0.0000    0.0000    0.0000 H   0  0  0  0  0  0  0  0  0  0  0  0
    0.0000    0.0000    0.0000 H   0  0  0  0  0  0  0  0  0  0  0  0
    0.0000    0.0000    0.0000 H   0  0  0  0  0  0  0  0  0  0  0  0
    0.0000    0.0000    0.0000 H   0  0  0  0  0  0  0  0  0  0  0  0
    0.0000    0.0000    0.0000 H   0  0  0  0  0  0  0  0  0  0  0  0
    0.0000    0.0000    0.0000 H   0  0  0  0  0  0  0  0  0  0  0  0
    0.0000    0.0000    0.0000 H   0  0  0  0  0  0  0  0  0  0  0  0
    0.0000    0.0000    0.0000 H   0  0  0  0  0  0  0  0  0  0  0  0
    0.0000    0.0000    0.0000 H   0  0  0  0  0  0  0  0  0  0  0  0
    0.0000    0.0000    0.0000 H   0  0  0  0  0  0  0  0  0  0  0  0
    0.0000    0.0000    0.0000 H   0  0  0  0  0  0  0  0  0  0  0  0
    0.0000    0.0000    0.0000 H   0  0  0  0  0  0  0  0  0  0  0  0
    0.0000    0.0000    0.0000 H   0  0  0  0  0  0  0  0  0  0  0  0
    0.0000    0.0000    0.0000 H   0  0  0  0  0  0  0  0  0  0  0  0
    0.0000    0.0000    0.0000 H   0  0  0  0  0  0  0  0  0  0  0  0
    0.0000    0.0000    0.0000 H   0  0  0  0  0  0  0  0  0  0  0  0
    0.0000    0.0000    0.0000 H   0  0  0  0  0  0  0  0  0  0  0  0
    0.0000    0.0000    0.0000 H   0  0  0  0  0  0  0  0  0  0  0  0
    0.0000    0.0000    0.0000 H   0  0  0  0  0  0  0  0  0  0  0  0
    0.0000    0.0000    0.0000 H   0  0  0  0  0  0  0  0  0  0  0  0
    0.0000    0.0000    0.0000 H   0  0  0  0  0  0  0  0  0  0  0  0
    0.0000    0.0000    0.0000 H   0  0  0  0  0  0  0  0  0  0  0  0
    0.0000    0.0000    0.0000 H   0  0  0  0  0  0  0  0  0  0  0  0
    0.0000    0.0000    0.0000 H   0  0  0  0  0  0  0  0  0  0  0  0
    0.0000    0.0000    0.0000 H   0  0  0  0  0  0  0  0  0  0  0  0
    0.0000    0.0000    0.0000 H   0  0  0  0  0  0  0  0  0  0  0  0
    0.0000    0.0000    0.0000 H   0  0  0  0  0  0  0  0  0  0  0  0
    0.0000    0.0000    0.0000 H   0  0  0  0  0  0  0  0  0  0  0  0
    0.0000    0.0000    0.0000 H   0  0  0  0  0  0  0  0  0  0  0  0
    0.0000    0.0000    0.0000 H   0  0  0  0  0  0  0  0  0  0  0  0
    0.0000    0.0000    0.0000 H   0  0  0  0  0  0  0  0  0  0  0  0
    0.0000    0.0000    0.0000 H   0  0  0  0  0  0  0  0  0  0  0  0
    0.0000    0.0000    0.0000 H   0  0  0  0  0  0  0  0  0  0  0  0
    0.0000    0.0000    0.0000 H   0  0  0  0  0  0  0  0  0  0  0  0
    0.0000    0.0000    0.0000 H   0  0  0  0  0  0  0  0  0  0  0  0
    0.0000    0.0000    0.0000 H   0  0  0  0  0  0  0  0  0  0  0  0
    0.0000    0.0000    0.0000 H   0  0  0  0  0  0  0  0  0  0  0  0
    0.0000    0.0000    0.0000 H   0  0  0  0  0  0  0  0  0  0  0  0
    0.0000    0.0000    0.0000 H   0  0  0  0  0  0  0  0  0  0  0  0
    0.0000    0.0000    0.0000 H   0  0  0  0  0  0  0  0  0  0  0  0
    0.0000    0.0000    0.0000 H   0  0  0  0  0  0  0  0  0  0  0  0
    0.0000    0.0000    0.0000 H   0  0  0  0  0  0  0  0  0  0  0  0
    0.0000    0.0000    0.0000 H   0  0  0  0  0  0  0  0  0  0  0  0
    0.0000    0.0000    0.0000 H   0  0  0  0  0  0  0  0  0  0  0  0
    0.0000    0.0000    0.0000 H   0  0  0  0  0  0  0  0  0  0  0  0
    0.0000    0.0000    0.0000 H   0  0  0  0  0  0  0  0  0  0  0  0
    0.0000    0.0000    0.0000 H   0  0  0  0  0  0  0  0  0  0  0  0
    0.0000    0.0000    0.0000 H   0  0  0  0  0  0  0  0  0  0  0  0
    0.0000    0.0000    0.0000 H   0  0  0  0  0  0  0  0  0  0  0  0
    0.0000    0.0000    0.0000 H   0  0  0  0  0  0  0  0  0  0  0  0
    0.0000    0.0000    0.0000 H   0  0  0  0  0  0  0  0  0  0  0  0
    0.0000    0.0000    0.0000 H   0  0  0  0  0  0  0  0  0  0  0  0
    0.0000    0.0000    0.0000 H   0  0  0  0  0  0  0  0  0  0  0  0
    0.0000    0.0000    0.0000 H   0  0  0  0  0  0  0  0  0  0  0  0
    0.0000    0.0000    0.0000 H   0  0  0  0  0  0  0  0  0  0  0  0
    0.0000    0.0000    0.0000 H   0  0  0  0  0  0  0  0  0  0  0  0
    0.0000    0.0000    0.0000 H   0  0  0  0  0  0  0  0  0  0  0  0
    0.0000    0.0000    0.0000 H   0  0  0  0  0  0  0  0  0  0  0  0
    0.0000    0.0000    0.0000 H   0  0  0  0  0  0  0  0  0  0  0  0
    0.0000    0.0000    0.0000 H   0  0  0  0  0  0  0  0  0  0  0  0
    0.0000    0.0000    0.0000 H   0  0  0  0  0  0  0  0  0  0  0  0
    0.0000    0.0000    0.0000 H   0  0  0  0  0  0  0  0  0  0  0  0
    0.0000    0.0000    0.0000 H   0  0  0  0  0  0  0  0  0  0  0  0
    0.0000    0.0000    0.0000 H   0  0  0  0  0  0  0  0  0  0  0  0
    0.0000    0.0000    0.0000 H   0  0  0  0  0  0  0  0  0  0  0  0
    0.0000    0.0000    0.0000 H   0  0  0  0  0  0  0  0  0  0  0  0
    0.0000    0.0000    0.0000 H   0  0  0  0  0  0  0  0  0  0  0  0
    0.0000    0.0000    0.0000 H   0  0  0  0  0  0  0  0  0  0  0  0
    0.0000    0.0000    0.0000 H   0  0  0  0  0  0  0  0  0  0  0  0
    0.0000    0.0000    0.0000 H   0  0  0  0  0  0  0  0  0  0  0  0
    0.0000    0.0000    0.0000 H   0  0  0  0  0  0  0  0  0  0  0  0
    0.0000    0.0000    0.0000 H   0  0  0  0  0  0  0  0  0  0  0  0
    0.0000    0.0000    0.0000 H   0  0  0  0  0  0  0  0  0  0  0  0
    0.0000    0.0000    0.0000 H   0  0  0  0  0  0  0  0  0  0  0  0
    0.0000    0.0000    0.0000 H   0  0  0  0  0  0  0  0  0  0  0  0
    0.0000    0.0000    0.0000 H   0  0  0  0  0  0  0  0  0  0  0  0
    0.0000    0.0000    0.0000 H   0  0  0  0  0  0  0  0  0  0  0  0
    0.0000    0.0000    0.0000 H   0  0  0  0  0  0  0  0  0  0  0  0
    0.0000    0.0000    0.0000 H   0  0  0  0  0  0  0  0  0  0  0  0
    0.0000    0.0000    0.0000 H   0  0  0  0  0  0  0  0  0  0  0  0
    0.0000    0.0000    0.0000 H   0  0  0  0  0  0  0  0  0  0  0  0
    0.0000    0.0000    0.0000 H   0  0  0  0  0  0  0  0  0  0  0  0
    0.0000    0.0000    0.0000 H   0  0  0  0  0  0  0  0  0  0  0  0
    0.0000    0.0000    0.0000 H   0  0  0  0  0  0  0  0  0  0  0  0
    0.0000    0.0000    0.0000 H   0  0  0  0  0  0  0  0  0  0  0  0
    0.0000    0.0000    0.0000 H   0  0  0  0  0  0  0  0  0  0  0  0
    0.0000    0.0000    0.0000 H   0  0  0  0  0  0  0  0  0  0  0  0
    0.0000    0.0000    0.0000 H   0  0  0  0  0  0  0  0  0  0  0  0
    0.0000    0.0000    0.0000 H   0  0  0  0  0  0  0  0  0  0  0  0
    0.0000    0.0000    0.0000 H   0  0  0  0  0  0  0  0  0  0  0  0
    0.0000    0.0000    0.0000 H   0  0  0  0  0  0  0  0  0  0  0  0
    0.0000    0.0000    0.0000 H   0  0  0  0  0  0  0  0  0  0  0  0
    0.0000    0.0000    0.0000 H   0  0  0  0  0  0  0  0  0  0  0  0
    0.0000    0.0000    0.0000 H   0  0  0  0  0  0  0  0  0  0  0  0
    0.0000    0.0000    0.0000 H   0  0  0  0  0  0  0  0  0  0  0  0
    0.0000    0.0000    0.0000 H   0  0  0  0  0  0  0  0  0  0  0  0
    0.0000    0.0000    0.0000 H   0  0  0  0  0  0  0  0  0  0  0  0
    0.0000    0.0000    0.0000 H   0  0  0  0  0  0  0  0  0  0  0  0
    0.0000    0.0000    0.0000 H   0  0  0  0  0  0  0  0  0  0  0  0
    0.0000    0.0000    0.0000 H   0  0  0  0  0  0  0  0  0  0  0  0
    0.0000    0.0000    0.0000 H   0  0  0  0  0  0  0  0  0  0  0  0
    0.0000    0.0000    0.0000 H   0  0  0  0  0  0  0  0  0  0  0  0
    0.0000    0.0000    0.0000 H   0  0  0  0  0  0  0  0  0  0  0  0
    0.0000    0.0000    0.0000 H   0  0  0  0  0  0  0  0  0  0  0  0
    0.0000    0.0000    0.0000 H   0  0  0  0  0  0  0  0  0  0  0  0
    0.0000    0.0000    0.0000 H   0  0  0  0  0  0  0  0  0  0  0  0
    0.0000    0.0000    0.0000 H   0  0  0  0  0  0  0  0  0  0  0  0
    0.0000    0.0000    0.0000 H   0  0  0  0  0  0  0  0  0  0  0  0
    0.0000    0.0000    0.0000 H   0  0  0  0  0  0  0  0  0  0  0  0
    0.0000    0.0000    0.0000 H   0  0  0  0  0  0  0  0  0  0  0  0
    0.0000    0.0000    0.0000 H   0  0  0  0  0  0  0  0  0  0  0  0
    0.0000    0.0000    0.0000 H   0  0  0  0  0  0  0  0  0  0  0  0
    0.0000    0.0000    0.0000 H   0  0  0  0  0  0  0  0  0  0  0  0
    0.0000    0.0000    0.0000 H   0  0  0  0  0  0  0  0  0  0  0  0
    0.0000    0.0000    0.0000 H   0  0  0  0  0  0  0  0  0  0  0  0
    0.0000    0.0000    0.0000 H   0  0  0  0  0  0  0  0  0  0  0  0
    0.0000    0.0000    0.0000 H   0  0  0  0  0  0  0  0  0  0  0  0
    0.0000    0.0000    0.0000 H   0  0  0  0  0  0  0  0  0  0  0  0
    0.0000    0.0000    0.0000 H   0  0  0  0  0  0  0  0  0  0  0  0
    0.0000    0.0000    0.0000 H   0  0  0  0  0  0  0  0  0  0  0  0
    0.0000    0.0000    0.0000 H   0  0  0  0  0  0  0  0  0  0  0  0
    0.0000    0.0000    0.0000 H   0  0  0  0  0  0  0  0  0  0  0  0
    0.0000    0.0000    0.0000 H   0  0  0  0  0  0  0  0  0  0  0  0
    0.0000    0.0000    0.0000 H   0  0  0  0  0  0  0  0  0  0  0  0
    0.0000    0.0000    0.0000 H   0  0  0  0  0  0  0  0  0  0  0  0
    0.0000    0.0000    0.0000 H   0  0  0  0  0  0  0  0  0  0  0  0
    0.0000    0.0000    0.0000 H   0  0  0  0  0  0  0  0  0  0  0  0
    0.0000    0.0000    0.0000 H   0  0  0  0  0  0  0  0  0  0  0  0
    0.0000    0.0000    0.0000 H   0  0  0  0  0  0  0  0  0  0  0  0
    0.0000    0.0000    0.0000 H   0  0  0  0  0  0  0  0  0  0  0  0
    0.0000    0.0000    0.0000 H   0  0  0  0  0  0  0  0  0  0  0  0
    0.0000    0.0000    0.0000 H   0  0  0  0  0  0  0  0  0  0  0  0
    0.0000    0.0000    0.0000 H   0  0  0  0  0  0  0  0  0  0  0  0
  1  2  2  3
  2  3  1  0
  2  4  1  0
  4  5  1  0
  5  6  1  0
  6  7  1  0
  8  7  1  1
  8  9  1  0
  9 10  1  0
 10 11  2  0
 12 10  1  6
 12 13  1  0
 13 14  1  0
 14 15  1  0
 15 16  1  0
 12 16  1  0
 16 17  1  0
 17 18  2  0
 19 17  1  1
 19 20  1  0
 19 21  1  0
 21 22  1  0
 22 23  2  0
 23 24  1  0
 24 25  2  0
 25 26  1  0
 26 27  2  0
 22 27  1  0
  8 28  1  0
 28 29  2  0
 28 30  1  0
 30 31  1  0
 31 32  1  0
 32 33  1  0
 33 34  1  0
 30 34  1  0
 34 35  1  6
 35 36  2  0
 35 37  1  0
 37 38  1  0
 38 39  1  0
 39 40  2  0
 39 41  1  0
 41 42  1  0
 42 43  1  0
 43 44  2  0
 43 45  1  0
 45 46  1  0
 46 47  1  0
 47 48  2  0
 47 49  1  0
 49 50  1  0
 50 51  1  0
 51 52  2  0
 51 53  1  0
 54 53  1  6
 54 55  1  0
 55 56  1  0
 56 57  1  0
 56 58  2  0
 54 59  1  0
 59 60  2  0
 59 61  1  0
 61 62  1  0
 62 63  1  0
 63 64  2  0
 63 65  1  0
 66 65  1  6
 66 67  1  0
 67 68  1  0
 68 69  1  0
 68 70  2  0
 66 71  1  0
 71 72  2  0
 71 73  1  0
 74 73  1  1
 74 75  1  0
 75 76  1  0
 76 77  2  0
 77 78  1  0
 78 79  2  0
 79 80  1  0
 80 81  2  0
 76 81  1  0
 74 82  1  0
 82 83  2  0
 82 84  1  0
 85 84  1  6
 85 86  1  0
 86 87  1  0
 87 88  1  0
 88 89  1  0
 88 90  2  0
 85 91  1  0
 91 92  2  0
 91 93  1  0
 94 93  1  1
 94 95  1  0
 95 96  1  0
 96 97  1  0
 97 98  1  0
 97 99  2  0
 94100  1  0
100101  2  0
100102  1  0
103102  1  6
103104  1  0
104105  1  6
104106  1  0
106107  1  0
103108  1  0
108109  2  0
108110  1  0
110111  1  0
111112  1  0
112113  1  0
113114  1  0
110114  1  0
114115  1  6
115116  2  0
115117  1  0
118117  1  1
118119  1  0
119120  1  0
120121  1  0
121122  1  0
121123  2  0
118124  1  0
124125  2  0
124126  1  0
127126  1  6
127128  1  0
128129  1  0
129130  1  0
130131  1  0
130132  2  0
127133  1  0
133134  2  0
133135  1  0
136135  1  1
136137  1  0
137138  1  0
138139  2  0
139140  1  0
140141  2  0
141142  1  0
141143  1  0
143144  2  0
138144  1  0
136145  1  0
145146  2  0
145147  1  0
148147  1  1
148149  1  0
149150  1  0
150151  1  0
150152  1  0
148153  1  0
153154  1  0
153155  2  0
  1156  1  0
  3157  1  0
  3158  1  0
  4159  1  0
  5160  1  0
  5161  1  0
  6162  1  0
  6163  1  0
  7164  1  0
  7165  1  0
  8166  1  0
  9167  1  0
 12168  1  0
 13169  1  0
 13170  1  0
 14171  1  0
 14172  1  0
 15173  1  0
 15174  1  0
 19175  1  0
 20176  1  0
 20177  1  0
 21178  1  0
 21179  1  0
 23180  1  0
 24181  1  0
 25182  1  0
 26183  1  0
 27184  1  0
 31185  1  0
 31186  1  0
 32187  1  0
 32188  1  0
 33189  1  0
 33190  1  0
 34191  1  0
 37192  1  0
 38193  1  0
 38194  1  0
 41195  1  0
 42196  1  0
 42197  1  0
 45198  1  0
 46199  1  0
 46200  1  0
 49201  1  0
 50202  1  0
 50203  1  0
 53204  1  0
 54205  1  0
 55206  1  0
 55207  1  0
 57208  1  0
 57209  1  0
 61210  1  0
 62211  1  0
 62212  1  0
 65213  1  0
 66214  1  0
 67215  1  0
 67216  1  0
 69217  1  0
 73218  1  0
 74219  1  0
 75220  1  0
 75221  1  0
 77222  1  0
 78223  1  0
 79224  1  0
 80225  1  0
 81226  1  0
 84227  1  0
 85228  1  0
 86229  1  0
 86230  1  0
 87231  1  0
 87232  1  0
 89233  1  0
 93234  1  0
 94235  1  0
 95236  1  0
 95237  1  0
 96238  1  0
 96239  1  0
 98240  1  0
102241  1  0
103242  1  0
104243  1  0
105244  1  0
105245  1  0
105246  1  0
106247  1  0
106248  1  0
107249  1  0
107250  1  0
107251  1  0
111252  1  0
111253  1  0
112254  1  0
112255  1  0
113256  1  0
113257  1  0
114258  1  0
117259  1  0
118260  1  0
119261  1  0
119262  1  0
120263  1  0
120264  1  0
122265  1  0
126266  1  0
127267  1  0
128268  1  0
128269  1  0
129270  1  0
129271  1  0
131272  1  0
135273  1  0
136274  1  0
137275  1  0
137276  1  0
139277  1  0
140278  1  0
142279  1  0
143280  1  0
144281  1  0
147282  1  0
148283  1  0
149284  1  0
149285  1  0
150286  1  0
151287  1  0
151288  1  0
151289  1  0
152290  1  0
152291  1  0
152292  1  0
154293  1  0
M  END
>  <ALOGPS_LOGP>  (1) 
-0.76

>  <ALOGPS_LOGS>  (1) 
-4.67

>  <ALOGPS_SOLUBILITY>  (1) 
4.64e-02 g/l

>  <DATABASE_ID>  (1) 
DB00006

>  <DATABASE_NAME>  (1) 
drugbank

>  <DRUGBANK_ID>  (1) 
DB00006

>  <DRUG_GROUPS>  (1) 
approved; investigational

>  <EXACT_MASS>  (1) 
2178.985813062

>  <FORMULA>  (1) 
C98H138N24O33

>  <GENERIC_NAME>  (1) 
Bivalirudin

>  <INCHI_IDENTIFIER>  (1) 
InChI=1S/C98H138N24O33/c1-5-52(4)82(96(153)122-39-15-23-70(122)92(149)114-60(30-34-79(134)135)85(142)111-59(29-33-78(132)133)86(143)116-64(43-55-24-26-56(123)27-25-55)89(146)118-67(97(154)155)40-51(2)3)119-87(144)61(31-35-80(136)137)112-84(141)58(28-32-77(130)131)113-88(145)63(42-54-18-10-7-11-19-54)117-90(147)66(45-81(138)139)110-76(129)50-107-83(140)65(44-71(100)124)109-75(128)49-106-73(126)47-104-72(125)46-105-74(127)48-108-91(148)68-21-13-38-121(68)95(152)62(20-12-36-103-98(101)102)115-93(150)69-22-14-37-120(69)94(151)57(99)41-53-16-8-6-9-17-53/h6-11,16-19,24-27,51-52,57-70,82,123H,5,12-15,20-23,28-50,99H2,1-4H3,(H2,100,124)(H,104,125)(H,105,127)(H,106,126)(H,107,140)(H,108,148)(H,109,128)(H,110,129)(H,111,142)(H,112,141)(H,113,145)(H,114,149)(H,115,150)(H,116,143)(H,117,147)(H,118,146)(H,119,144)(H,130,131)(H,132,133)(H,134,135)(H,136,137)(H,138,139)(H,154,155)(H4,101,102,103)/t52-,57+,58-,59-,60-,61-,62-,63-,64-,65-,66-,67-,68-,69-,70-,82-/m0/s1

>  <INCHI_KEY>  (1) 
OIRCOABEOLEUMC-GEJPAHFPSA-N

>  <JCHEM_ACCEPTOR_COUNT>  (1) 
37

>  <JCHEM_AVERAGE_POLARIZABILITY>  (1) 
215.45560313091494

>  <JCHEM_BIOAVAILABILITY>  (1) 
0

>  <JCHEM_DONOR_COUNT>  (1) 
28

>  <JCHEM_FORMAL_CHARGE>  (1) 
0

>  <JCHEM_GHOSE_FILTER>  (1) 
0

>  <JCHEM_IUPAC>  (1) 
(4S)-4-[(2S)-2-[(2S)-2-[(2S)-2-{2-[(2S)-2-(2-{2-[2-(2-{[(2S)-1-[(2S)-2-{[(2S)-1-[(2R)-2-amino-3-phenylpropanoyl]pyrrolidin-2-yl]formamido}-5-carbamimidamidopentanoyl]pyrrolidin-2-yl]formamido}acetamido)acetamido]acetamido}acetamido)-3-carbamoylpropanamido]acetamido}-3-carboxypropanamido]-3-phenylpropanamido]-4-carboxybutanamido]-4-{[(2S,3S)-1-[(2S)-2-{[(1S)-3-carboxy-1-{[(1S)-3-carboxy-1-{[(1S)-1-{[(1S)-1-carboxy-3-methylbutyl]carbamoyl}-2-(4-hydroxyphenyl)ethyl]carbamoyl}propyl]carbamoyl}propyl]carbamoyl}pyrrolidin-1-yl]-3-methyl-1-oxopentan-2-yl]carbamoyl}butanoic acid

>  <JCHEM_LOGP>  (1) 
-14.345512778557275

>  <JCHEM_MDDR_LIKE_RULE>  (1) 
1

>  <JCHEM_NUMBER_OF_RINGS>  (1) 
6

>  <JCHEM_PHYSIOLOGICAL_CHARGE>  (1) 
-4

>  <JCHEM_PKA>  (1) 
3.177101336420163

>  <JCHEM_PKA_STRONGEST_ACIDIC>  (1) 
2.7944312684415116

>  <JCHEM_PKA_STRONGEST_BASIC>  (1) 
11.878406919439332

>  <JCHEM_POLAR_SURFACE_AREA>  (1) 
901.5700000000003

>  <JCHEM_REFRACTIVITY>  (1) 
543.3342000000006

>  <JCHEM_ROTATABLE_BOND_COUNT>  (1) 
66

>  <JCHEM_RULE_OF_FIVE>  (1) 
0

>  <JCHEM_TRADITIONAL_IUPAC>  (1) 
bivalirudin

>  <JCHEM_VEBER_RULE>  (1) 
0

>  <MOLECULAR_WEIGHT>  (1) 
2180.2853

>  <PRODUCTS>  (1) 
Angiomax; Bivalirudin; Bivalirudin for Injection

>  <SECONDARY_ACCESSION_NUMBERS>  (1) 
BTD00076; EXPT03302; BIOD00076; DB02351

>  <SMILES>  (1) 
CC[C@H](C)[C@H](NC(=O)[C@H](CCC(O)=O)NC(=O)[C@H](CCC(O)=O)NC(=O)[C@H](CC1=CC=CC=C1)NC(=O)[C@H](CC(O)=O)NC(=O)CNC(=O)[C@H](CC(N)=O)NC(=O)CNC(=O)CNC(=O)CNC(=O)CNC(=O)[C@@H]1CCCN1C(=O)[C@H](CCCNC(N)=N)NC(=O)[C@@H]1CCCN1C(=O)[C@H](N)CC1=CC=CC=C1)C(=O)N1CCC[C@H]1C(=O)N[C@@H](CCC(O)=O)C(=O)N[C@@H](CCC(O)=O)C(=O)N[C@@H](CC1=CC=C(O)C=C1)C(=O)N[C@@H](CC(C)C)C(O)=O

>  <SYNONYMS>  (1) 
Bivalirudina; Bivalirudinum; Hirulog

$$$$
