951
     RDKit          2D

 17 17  0  0  0  0  0  0  0  0999 V2000
    1.6500    0.9034    0.0000 O   0  0  0  0  0  0  0  0  0  0  0  0
    3.0790    0.9034    0.0000 N   0  0  0  0  0  0  0  0  0  0  0  0
    2.3644   -1.9841    0.0000 N   0  0  0  0  0  0  0  0  0  0  0  0
    3.0790    1.7284    0.0000 N   0  0  0  0  0  0  0  0  0  0  0  0
    2.3644   -0.3341    0.0000 C   0  0  0  0  0  0  0  0  0  0  0  0
    3.0790   -0.7466    0.0000 C   0  0  0  0  0  0  0  0  0  0  0  0
    1.6500   -0.7466    0.0000 C   0  0  0  0  0  0  0  0  0  0  0  0
    2.3644    0.4909    0.0000 C   0  0  0  0  0  0  0  0  0  0  0  0
    3.0790   -1.5716    0.0000 C   0  0  0  0  0  0  0  0  0  0  0  0
    1.6500   -1.5716    0.0000 C   0  0  0  0  0  0  0  0  0  0  0  0
    0.0000    0.0000    0.0000 H   0  0  0  0  0  0  0  0  0  0  0  0
    0.0000    0.0000    0.0000 H   0  0  0  0  0  0  0  0  0  0  0  0
    0.0000    0.0000    0.0000 H   0  0  0  0  0  0  0  0  0  0  0  0
    0.0000    0.0000    0.0000 H   0  0  0  0  0  0  0  0  0  0  0  0
    0.0000    0.0000    0.0000 H   0  0  0  0  0  0  0  0  0  0  0  0
    0.0000    0.0000    0.0000 H   0  0  0  0  0  0  0  0  0  0  0  0
    0.0000    0.0000    0.0000 H   0  0  0  0  0  0  0  0  0  0  0  0
  1  8  2  0
  2  4  1  0
  2  8  1  0
  3  9  2  0
  3 10  1  0
  5  6  2  0
  5  7  1  0
  5  8  1  0
  6  9  1  0
  7 10  2  0
  2 11  1  0
  4 12  1  0
  4 13  1  0
  6 14  1  0
  7 15  1  0
  9 16  1  0
 10 17  1  0
M  END
>  <ALOGPS_LOGP>  (1) 
-0.71

>  <ALOGPS_LOGS>  (1) 
-0.59

>  <ALOGPS_SOLUBILITY>  (1) 
3.49e+01 g/l

>  <DATABASE_ID>  (1) 
DB00951

>  <DATABASE_NAME>  (1) 
drugbank

>  <DRUGBANK_ID>  (1) 
DB00951

>  <DRUG_GROUPS>  (1) 
approved

>  <EXACT_MASS>  (1) 
137.058911861

>  <FORMULA>  (1) 
C6H7N3O

>  <GENERIC_NAME>  (1) 
Isoniazid

>  <INCHI_IDENTIFIER>  (1) 
InChI=1S/C6H7N3O/c7-9-6(10)5-1-3-8-4-2-5/h1-4H,7H2,(H,9,10)

>  <INCHI_KEY>  (1) 
QRXWMOHMRWLFEY-UHFFFAOYSA-N

>  <INTERNATIONAL_BRANDS>  (1) 
Nicozid; Nidrazid; Nydrazid; Rimicid; Rimifon; Servizid; Tibinide

>  <JCHEM_ACCEPTOR_COUNT>  (1) 
3

>  <JCHEM_AVERAGE_POLARIZABILITY>  (1) 
13.211068752970714

>  <JCHEM_BIOAVAILABILITY>  (1) 
1

>  <JCHEM_DONOR_COUNT>  (1) 
2

>  <JCHEM_FORMAL_CHARGE>  (1) 
0

>  <JCHEM_GHOSE_FILTER>  (1) 
0

>  <JCHEM_IUPAC>  (1) 
pyridine-4-carbohydrazide

>  <JCHEM_LOGP>  (1) 
-0.6902620096666666

>  <JCHEM_MDDR_LIKE_RULE>  (1) 
0

>  <JCHEM_NUMBER_OF_RINGS>  (1) 
1

>  <JCHEM_PHYSIOLOGICAL_CHARGE>  (1) 
0

>  <JCHEM_PKA_STRONGEST_ACIDIC>  (1) 
13.605501981551239

>  <JCHEM_PKA_STRONGEST_BASIC>  (1) 
3.3508081159530896

>  <JCHEM_POLAR_SURFACE_AREA>  (1) 
68.01

>  <JCHEM_REFRACTIVITY>  (1) 
37.46360000000001

>  <JCHEM_ROTATABLE_BOND_COUNT>  (1) 
1

>  <JCHEM_RULE_OF_FIVE>  (1) 
1

>  <JCHEM_TRADITIONAL_IUPAC>  (1) 
isoniazid

>  <JCHEM_VEBER_RULE>  (1) 
0

>  <MOLECULAR_WEIGHT>  (1) 
137.1393

>  <PRODUCTS>  (1) 
Dom-isoniazid 300mg Tablets; IsonaRif; Isoniazid; Isoniazid Syrup 50mg/5ml; Isoniazid Tab 100mg; Isoniazid Tab 300mg; Isoniazid Tab 50mg; Isoniazide 100mg Tablets; Isotamine B 300; Isotamine Powder; Isotamine Syr Pediatric 50mg/5ml; Isotamine-100; Isotamine-300; Pdp-isoniazid; Rifamate; Rifater

>  <SECONDARY_ACCESSION_NUMBERS>  (1) 
APRD01055; EXPT01940

>  <SMILES>  (1) 
NNC(=O)C1=CC=NC=C1

>  <SYNONYMS>  (1) 
4-pyridinecarbohydrazide; INH; Isonicotinic acid hydrazide; Isonicotinic hydrazide; Isonicotinohydrazide; Isonicotinylhydrazine

$$$$
