
     RDKit          2D

 54 57  0  0  1  0  0  0  0  0999 V2000
    8.2910  -12.1560    0.0000 C   0  0  0  0  0  0  0  0  0  0  0  0
    7.5765  -12.5685    0.0000 C   0  0  0  0  0  0  0  0  0  0  0  0
    7.5765  -13.3936    0.0000 C   0  0  0  0  0  0  0  0  0  0  0  0
    8.2910  -13.8061    0.0000 C   0  0  0  0  0  0  0  0  0  0  0  0
    9.0054  -13.3936    0.0000 C   0  0  0  0  0  0  0  0  0  0  0  0
    9.0054  -12.5685    0.0000 C   0  0  0  0  0  0  0  0  0  0  0  0
    9.7199  -12.1560    0.0000 C   0  0  0  0  0  0  0  0  0  0  0  0
    9.7199  -13.8061    0.0000 C   0  0  0  0  0  0  0  0  0  0  0  0
   10.4344  -13.3936    0.0000 C   0  0  0  0  0  0  0  0  0  0  0  0
   10.4344  -12.5685    0.0000 C   0  0  0  0  0  0  0  0  0  0  0  0
   10.4344  -10.9185    0.0000 C   0  0  0  0  0  0  0  0  0  0  0  0
    9.7199  -11.3310    0.0000 C   0  0  0  0  0  0  0  0  0  0  0  0
   11.1488  -12.1560    0.0000 C   0  0  0  0  0  0  0  0  0  0  0  0
   11.1488  -11.3310    0.0000 C   0  0  0  0  0  0  0  0  0  0  0  0
   11.9335  -11.0761    0.0000 C   0  0  0  0  0  0  0  0  0  0  0  0
   11.9335  -12.4109    0.0000 C   0  0  0  0  0  0  0  0  0  0  0  0
   12.4184  -11.7435    0.0000 C   0  0  0  0  0  0  0  0  0  0  0  0
    6.8620  -13.8061    0.0000 O   0  0  0  0  0  0  0  0  0  0  0  0
    9.0054  -11.7435    0.0000 C   0  0  0  0  0  0  0  0  0  0  0  0
   11.1488  -10.5060    0.0000 C   0  0  0  0  0  0  0  0  0  0  0  0
    9.0054  -10.9185    0.0000 O   0  0  0  0  0  0  0  0  0  0  0  0
   11.9335  -10.2511    0.0000 C   0  0  0  0  0  0  0  0  0  0  0  0
   12.6479  -10.6636    0.0000 O   0  0  0  0  0  0  0  0  0  0  0  0
   11.2190   -9.8386    0.0000 O   0  0  0  0  0  0  0  0  0  0  0  0
   12.6479   -9.8386    0.0000 O   0  0  0  0  0  0  0  0  0  0  0  0
   10.5045  -10.2511    0.0000 C   0  0  0  0  0  0  0  0  0  0  0  0
    9.7900   -9.8386    0.0000 Cl  0  0  0  0  0  0  0  0  0  0  0  0
    0.0000    0.0000    0.0000 H   0  0  0  0  0  0  0  0  0  0  0  0
    0.0000    0.0000    0.0000 H   0  0  0  0  0  0  0  0  0  0  0  0
    0.0000    0.0000    0.0000 H   0  0  0  0  0  0  0  0  0  0  0  0
    0.0000    0.0000    0.0000 H   0  0  0  0  0  0  0  0  0  0  0  0
    0.0000    0.0000    0.0000 H   0  0  0  0  0  0  0  0  0  0  0  0
    0.0000    0.0000    0.0000 H   0  0  0  0  0  0  0  0  0  0  0  0
    0.0000    0.0000    0.0000 H   0  0  0  0  0  0  0  0  0  0  0  0
    0.0000    0.0000    0.0000 H   0  0  0  0  0  0  0  0  0  0  0  0
    0.0000    0.0000    0.0000 H   0  0  0  0  0  0  0  0  0  0  0  0
    0.0000    0.0000    0.0000 H   0  0  0  0  0  0  0  0  0  0  0  0
    0.0000    0.0000    0.0000 H   0  0  0  0  0  0  0  0  0  0  0  0
    0.0000    0.0000    0.0000 H   0  0  0  0  0  0  0  0  0  0  0  0
    0.0000    0.0000    0.0000 H   0  0  0  0  0  0  0  0  0  0  0  0
    0.0000    0.0000    0.0000 H   0  0  0  0  0  0  0  0  0  0  0  0
    0.0000    0.0000    0.0000 H   0  0  0  0  0  0  0  0  0  0  0  0
    0.0000    0.0000    0.0000 H   0  0  0  0  0  0  0  0  0  0  0  0
    0.0000    0.0000    0.0000 H   0  0  0  0  0  0  0  0  0  0  0  0
    0.0000    0.0000    0.0000 H   0  0  0  0  0  0  0  0  0  0  0  0
    0.0000    0.0000    0.0000 H   0  0  0  0  0  0  0  0  0  0  0  0
    0.0000    0.0000    0.0000 H   0  0  0  0  0  0  0  0  0  0  0  0
    0.0000    0.0000    0.0000 H   0  0  0  0  0  0  0  0  0  0  0  0
    0.0000    0.0000    0.0000 H   0  0  0  0  0  0  0  0  0  0  0  0
    0.0000    0.0000    0.0000 H   0  0  0  0  0  0  0  0  0  0  0  0
    0.0000    0.0000    0.0000 H   0  0  0  0  0  0  0  0  0  0  0  0
    0.0000    0.0000    0.0000 H   0  0  0  0  0  0  0  0  0  0  0  0
    0.0000    0.0000    0.0000 H   0  0  0  0  0  0  0  0  0  0  0  0
    0.0000    0.0000    0.0000 H   0  0  0  0  0  0  0  0  0  0  0  0
  1  2  2  0
  2  3  1  0
  3  4  1  0
  4  5  2  0
  1  6  1  0
  7  6  1  0
  6  5  1  0
  5  8  1  0
  8  9  1  0
  9 10  1  0
 10 13  1  0
  7 10  1  0
 12  7  1  0
 11 12  1  0
 11 14  1  0
 15 14  1  0
 14 13  1  0
 13 16  1  0
 16 17  1  0
 15 17  1  0
  3 18  2  0
  6 19  1  1
 14 20  1  1
 12 21  1  1
 15 22  1  1
 15 23  1  0
 22 24  1  0
 22 25  2  0
 24 26  1  0
 26 27  1  0
  1 28  1  0
  2 29  1  0
  4 30  1  0
  7 31  1  6
  8 32  1  0
  8 33  1  0
  9 34  1  0
  9 35  1  0
 10 36  1  1
 11 37  1  0
 11 38  1  0
 12 39  1  0
 13 40  1  6
 16 41  1  0
 16 42  1  0
 17 43  1  0
 17 44  1  0
 19 45  1  0
 19 46  1  0
 19 47  1  0
 20 48  1  0
 20 49  1  0
 20 50  1  0
 21 51  1  0
 23 52  1  0
 26 53  1  0
 26 54  1  0
M  END
>  <ALOGPS_LOGP>  (1) 
2.20

>  <ALOGPS_LOGS>  (1) 
-4.07

>  <ALOGPS_SOLUBILITY>  (1) 
3.36e-02 g/l

>  <DATABASE_ID>  (1) 
DB00873

>  <DATABASE_NAME>  (1) 
drugbank

>  <DRUGBANK_ID>  (1) 
DB00873

>  <DRUG_GROUPS>  (1) 
approved

>  <EXACT_MASS>  (1) 
394.154701681

>  <FORMULA>  (1) 
C21H27ClO5

>  <GENERIC_NAME>  (1) 
Loteprednol

>  <INCHI_IDENTIFIER>  (1) 
InChI=1S/C21H27ClO5/c1-19-7-5-13(23)9-12(19)3-4-14-15-6-8-21(26,18(25)27-11-22)20(15,2)10-16(24)17(14)19/h5,7,9,14-17,24,26H,3-4,6,8,10-11H2,1-2H3/t14-,15-,16-,17+,19-,20-,21-/m0/s1

>  <INCHI_KEY>  (1) 
YPZVAYHNBBHPTO-MXRBDKCISA-N

>  <INTERNATIONAL_BRANDS>  (1) 
Loteflam

>  <JCHEM_ACCEPTOR_COUNT>  (1) 
4

>  <JCHEM_AVERAGE_POLARIZABILITY>  (1) 
41.292118137845975

>  <JCHEM_BIOAVAILABILITY>  (1) 
1

>  <JCHEM_DONOR_COUNT>  (1) 
2

>  <JCHEM_FORMAL_CHARGE>  (1) 
0

>  <JCHEM_GHOSE_FILTER>  (1) 
1

>  <JCHEM_IUPAC>  (1) 
chloromethyl (1S,2R,10S,11S,14R,15S,17S)-14,17-dihydroxy-2,15-dimethyl-5-oxotetracyclo[8.7.0.0²,⁷.0¹¹,¹⁵]heptadeca-3,6-diene-14-carboxylate

>  <JCHEM_LOGP>  (1) 
2.5202634643333335

>  <JCHEM_MDDR_LIKE_RULE>  (1) 
0

>  <JCHEM_NUMBER_OF_RINGS>  (1) 
4

>  <JCHEM_PHYSIOLOGICAL_CHARGE>  (1) 
0

>  <JCHEM_PKA>  (1) 
14.886580103724683

>  <JCHEM_PKA_STRONGEST_ACIDIC>  (1) 
12.012492493247677

>  <JCHEM_PKA_STRONGEST_BASIC>  (1) 
-2.8514024872015327

>  <JCHEM_POLAR_SURFACE_AREA>  (1) 
83.83000000000001

>  <JCHEM_REFRACTIVITY>  (1) 
102.64849999999998

>  <JCHEM_ROTATABLE_BOND_COUNT>  (1) 
3

>  <JCHEM_RULE_OF_FIVE>  (1) 
1

>  <JCHEM_TRADITIONAL_IUPAC>  (1) 
loteprednol

>  <JCHEM_VEBER_RULE>  (1) 
0

>  <MOLECULAR_WEIGHT>  (1) 
394.889

>  <PRODUCTS>  (1) 
Alrex; Lotemax; Lotemax Gel; Lotemax Ointment; Zylet

>  <SALTS>  (1) 
Loteprednol etabonate

>  <SECONDARY_ACCESSION_NUMBERS>  (1) 
APRD01078

>  <SMILES>  (1) 
[H][C@@]12CC[C@](O)(C(=O)OCCl)[C@@]1(C)C[C@H](O)[C@@]1([H])[C@@]2([H])CCC2=CC(=O)C=C[C@]12C

>  <SYNONYMS>  (1) 
Loteprednol; Loteprednolum

$$$$
