1226
     RDKit          2D

154159  0  0  1  0  0  0  0  0999 V2000
    8.4681    1.4290    0.0000 O   0  0  0  0  0  0  0  0  0  0  0  0
   14.2432   -1.4290    0.0000 O   0  0  0  0  0  0  0  0  0  0  0  0
    2.3661    3.2904    0.0000 O   0  0  0  0  0  0  0  0  0  0  0  0
   20.3451   -3.2904    0.0000 O   0  0  0  0  0  0  0  0  0  0  0  0
    2.3661    1.6005    0.0000 O   0  0  0  0  0  0  0  0  0  0  0  0
   20.3451   -1.6005    0.0000 O   0  0  0  0  0  0  0  0  0  0  0  0
    3.8495    6.5705    0.0000 O   0  0  0  0  0  0  0  0  0  0  0  0
   18.8617   -6.5705    0.0000 O   0  0  0  0  0  0  0  0  0  0  0  0
    2.4206    4.0955    0.0000 O   0  0  0  0  0  0  0  0  0  0  0  0
   20.2907   -4.0955    0.0000 O   0  0  0  0  0  0  0  0  0  0  0  0
    2.4206    5.7455    0.0000 O   0  0  0  0  0  0  0  0  0  0  0  0
   20.2907   -5.7455    0.0000 O   0  0  0  0  0  0  0  0  0  0  0  0
    9.7056    2.1435    0.0000 O   0  0  0  0  0  0  0  0  0  0  0  0
   13.0057   -2.1435    0.0000 O   0  0  0  0  0  0  0  0  0  0  0  0
    5.9930    2.8579    0.0000 N   0  0  0  0  0  0  0  0  0  0  0  0
   16.7183   -2.8579    0.0000 N   0  0  0  0  0  0  0  0  0  0  0  0
    5.2785    3.2705    0.0000 C   0  0  0  0  0  0  0  0  0  0  0  0
   17.4327   -3.2705    0.0000 C   0  0  0  0  0  0  0  0  0  0  0  0
    5.9930    2.0329    0.0000 C   0  0  0  0  0  0  0  0  0  0  0  0
   16.7183   -2.0329    0.0000 C   0  0  0  0  0  0  0  0  0  0  0  0
    6.8180    2.8579    0.0000 C   0  0  0  0  0  0  0  0  0  0  0  0
   15.8932   -2.8579    0.0000 C   0  0  0  0  0  0  0  0  0  0  0  0
    4.5640    2.8579    0.0000 C   0  0  0  0  0  0  0  0  0  0  0  0
   18.1472   -2.8579    0.0000 C   0  0  0  0  0  0  0  0  0  0  0  0
    5.2785    1.6204    0.0000 C   0  0  0  0  0  0  0  0  0  0  0  0
   17.4327   -1.6204    0.0000 C   0  0  0  0  0  0  0  0  0  0  0  0
    6.4055    3.5724    0.0000 C   0  0  0  0  0  0  0  0  0  0  0  0
   16.3057   -3.5724    0.0000 C   0  0  0  0  0  0  0  0  0  0  0  0
    5.2785    4.0955    0.0000 C   0  0  0  0  0  0  0  0  0  0  0  0
   17.4327   -4.0955    0.0000 C   0  0  0  0  0  0  0  0  0  0  0  0
    4.5640    2.0329    0.0000 C   0  0  0  0  0  0  0  0  0  0  0  0
   18.1472   -2.0329    0.0000 C   0  0  0  0  0  0  0  0  0  0  0  0
    7.2305    2.1435    0.0000 C   0  0  0  0  0  0  0  0  0  0  0  0
   15.4807   -2.1435    0.0000 C   0  0  0  0  0  0  0  0  0  0  0  0
    3.8265    3.2991    0.0000 C   0  0  0  0  0  0  0  0  0  0  0  0
   18.8847   -3.2991    0.0000 C   0  0  0  0  0  0  0  0  0  0  0  0
    4.5640    4.5080    0.0000 C   0  0  0  0  0  0  0  0  0  0  0  0
   18.1472   -4.5080    0.0000 C   0  0  0  0  0  0  0  0  0  0  0  0
    3.8265    1.5918    0.0000 C   0  0  0  0  0  0  0  0  0  0  0  0
   18.8847   -1.5918    0.0000 C   0  0  0  0  0  0  0  0  0  0  0  0
    8.0556    2.1435    0.0000 C   0  0  0  0  0  0  0  0  0  0  0  0
   14.6557   -2.1435    0.0000 C   0  0  0  0  0  0  0  0  0  0  0  0
    3.0790    2.8751    0.0000 C   0  0  0  0  0  0  0  0  0  0  0  0
   19.6323   -2.8751    0.0000 C   0  0  0  0  0  0  0  0  0  0  0  0
    3.0790    2.0158    0.0000 C   0  0  0  0  0  0  0  0  0  0  0  0
   19.6323   -2.0158    0.0000 C   0  0  0  0  0  0  0  0  0  0  0  0
    3.8495    4.0955    0.0000 C   0  0  0  0  0  0  0  0  0  0  0  0
   18.8617   -4.0955    0.0000 C   0  0  0  0  0  0  0  0  0  0  0  0
    4.5640    5.3330    0.0000 C   0  0  0  0  0  0  0  0  0  0  0  0
   18.1472   -5.3330    0.0000 C   0  0  0  0  0  0  0  0  0  0  0  0
    3.8495    5.7455    0.0000 C   0  0  0  0  0  0  0  0  0  0  0  0
   18.8617   -5.7455    0.0000 C   0  0  0  0  0  0  0  0  0  0  0  0
    3.1351    4.5080    0.0000 C   0  0  0  0  0  0  0  0  0  0  0  0
   19.5762   -4.5080    0.0000 C   0  0  0  0  0  0  0  0  0  0  0  0
    3.1351    5.3330    0.0000 C   0  0  0  0  0  0  0  0  0  0  0  0
   19.5762   -5.3330    0.0000 C   0  0  0  0  0  0  0  0  0  0  0  0
    9.2931    1.4290    0.0000 C   0  0  0  0  0  0  0  0  0  0  0  0
   13.4182   -1.4290    0.0000 C   0  0  0  0  0  0  0  0  0  0  0  0
    1.6500    2.8806    0.0000 C   0  0  0  0  0  0  0  0  0  0  0  0
   21.0612   -2.8806    0.0000 C   0  0  0  0  0  0  0  0  0  0  0  0
    2.3693    0.7755    0.0000 C   0  0  0  0  0  0  0  0  0  0  0  0
   20.3420   -0.7755    0.0000 C   0  0  0  0  0  0  0  0  0  0  0  0
    9.7056    0.7145    0.0000 C   0  0  0  0  0  0  0  0  0  0  0  0
   13.0057   -0.7145    0.0000 C   0  0  0  0  0  0  0  0  0  0  0  0
   10.5306    0.7145    0.0000 C   0  0  0  0  0  0  0  0  0  0  0  0
   12.1807   -0.7145    0.0000 C   0  0  0  0  0  0  0  0  0  0  0  0
    4.5640    6.9830    0.0000 C   0  0  0  0  0  0  0  0  0  0  0  0
   18.1472   -6.9830    0.0000 C   0  0  0  0  0  0  0  0  0  0  0  0
    1.7061    4.5080    0.0000 C   0  0  0  0  0  0  0  0  0  0  0  0
   21.0052   -4.5080    0.0000 C   0  0  0  0  0  0  0  0  0  0  0  0
    2.4206    6.5705    0.0000 C   0  0  0  0  0  0  0  0  0  0  0  0
   20.2907   -6.5705    0.0000 C   0  0  0  0  0  0  0  0  0  0  0  0
   10.9431    0.0000    0.0000 C   0  0  0  0  0  0  0  0  0  0  0  0
   11.7681    0.0000    0.0000 C   0  0  0  0  0  0  0  0  0  0  0  0
    0.0000    0.0000    0.0000 H   0  0  0  0  0  0  0  0  0  0  0  0
    0.0000    0.0000    0.0000 H   0  0  0  0  0  0  0  0  0  0  0  0
    0.0000    0.0000    0.0000 H   0  0  0  0  0  0  0  0  0  0  0  0
    0.0000    0.0000    0.0000 H   0  0  0  0  0  0  0  0  0  0  0  0
    0.0000    0.0000    0.0000 H   0  0  0  0  0  0  0  0  0  0  0  0
    0.0000    0.0000    0.0000 H   0  0  0  0  0  0  0  0  0  0  0  0
    0.0000    0.0000    0.0000 H   0  0  0  0  0  0  0  0  0  0  0  0
    0.0000    0.0000    0.0000 H   0  0  0  0  0  0  0  0  0  0  0  0
    0.0000    0.0000    0.0000 H   0  0  0  0  0  0  0  0  0  0  0  0
    0.0000    0.0000    0.0000 H   0  0  0  0  0  0  0  0  0  0  0  0
    0.0000    0.0000    0.0000 H   0  0  0  0  0  0  0  0  0  0  0  0
    0.0000    0.0000    0.0000 H   0  0  0  0  0  0  0  0  0  0  0  0
    0.0000    0.0000    0.0000 H   0  0  0  0  0  0  0  0  0  0  0  0
    0.0000    0.0000    0.0000 H   0  0  0  0  0  0  0  0  0  0  0  0
    0.0000    0.0000    0.0000 H   0  0  0  0  0  0  0  0  0  0  0  0
    0.0000    0.0000    0.0000 H   0  0  0  0  0  0  0  0  0  0  0  0
    0.0000    0.0000    0.0000 H   0  0  0  0  0  0  0  0  0  0  0  0
    0.0000    0.0000    0.0000 H   0  0  0  0  0  0  0  0  0  0  0  0
    0.0000    0.0000    0.0000 H   0  0  0  0  0  0  0  0  0  0  0  0
    0.0000    0.0000    0.0000 H   0  0  0  0  0  0  0  0  0  0  0  0
    0.0000    0.0000    0.0000 H   0  0  0  0  0  0  0  0  0  0  0  0
    0.0000    0.0000    0.0000 H   0  0  0  0  0  0  0  0  0  0  0  0
    0.0000    0.0000    0.0000 H   0  0  0  0  0  0  0  0  0  0  0  0
    0.0000    0.0000    0.0000 H   0  0  0  0  0  0  0  0  0  0  0  0
    0.0000    0.0000    0.0000 H   0  0  0  0  0  0  0  0  0  0  0  0
    0.0000    0.0000    0.0000 H   0  0  0  0  0  0  0  0  0  0  0  0
    0.0000    0.0000    0.0000 H   0  0  0  0  0  0  0  0  0  0  0  0
    0.0000    0.0000    0.0000 H   0  0  0  0  0  0  0  0  0  0  0  0
    0.0000    0.0000    0.0000 H   0  0  0  0  0  0  0  0  0  0  0  0
    0.0000    0.0000    0.0000 H   0  0  0  0  0  0  0  0  0  0  0  0
    0.0000    0.0000    0.0000 H   0  0  0  0  0  0  0  0  0  0  0  0
    0.0000    0.0000    0.0000 H   0  0  0  0  0  0  0  0  0  0  0  0
    0.0000    0.0000    0.0000 H   0  0  0  0  0  0  0  0  0  0  0  0
    0.0000    0.0000    0.0000 H   0  0  0  0  0  0  0  0  0  0  0  0
    0.0000    0.0000    0.0000 H   0  0  0  0  0  0  0  0  0  0  0  0
    0.0000    0.0000    0.0000 H   0  0  0  0  0  0  0  0  0  0  0  0
    0.0000    0.0000    0.0000 H   0  0  0  0  0  0  0  0  0  0  0  0
    0.0000    0.0000    0.0000 H   0  0  0  0  0  0  0  0  0  0  0  0
    0.0000    0.0000    0.0000 H   0  0  0  0  0  0  0  0  0  0  0  0
    0.0000    0.0000    0.0000 H   0  0  0  0  0  0  0  0  0  0  0  0
    0.0000    0.0000    0.0000 H   0  0  0  0  0  0  0  0  0  0  0  0
    0.0000    0.0000    0.0000 H   0  0  0  0  0  0  0  0  0  0  0  0
    0.0000    0.0000    0.0000 H   0  0  0  0  0  0  0  0  0  0  0  0
    0.0000    0.0000    0.0000 H   0  0  0  0  0  0  0  0  0  0  0  0
    0.0000    0.0000    0.0000 H   0  0  0  0  0  0  0  0  0  0  0  0
    0.0000    0.0000    0.0000 H   0  0  0  0  0  0  0  0  0  0  0  0
    0.0000    0.0000    0.0000 H   0  0  0  0  0  0  0  0  0  0  0  0
    0.0000    0.0000    0.0000 H   0  0  0  0  0  0  0  0  0  0  0  0
    0.0000    0.0000    0.0000 H   0  0  0  0  0  0  0  0  0  0  0  0
    0.0000    0.0000    0.0000 H   0  0  0  0  0  0  0  0  0  0  0  0
    0.0000    0.0000    0.0000 H   0  0  0  0  0  0  0  0  0  0  0  0
    0.0000    0.0000    0.0000 H   0  0  0  0  0  0  0  0  0  0  0  0
    0.0000    0.0000    0.0000 H   0  0  0  0  0  0  0  0  0  0  0  0
    0.0000    0.0000    0.0000 H   0  0  0  0  0  0  0  0  0  0  0  0
    0.0000    0.0000    0.0000 H   0  0  0  0  0  0  0  0  0  0  0  0
    0.0000    0.0000    0.0000 H   0  0  0  0  0  0  0  0  0  0  0  0
    0.0000    0.0000    0.0000 H   0  0  0  0  0  0  0  0  0  0  0  0
    0.0000    0.0000    0.0000 H   0  0  0  0  0  0  0  0  0  0  0  0
    0.0000    0.0000    0.0000 H   0  0  0  0  0  0  0  0  0  0  0  0
    0.0000    0.0000    0.0000 H   0  0  0  0  0  0  0  0  0  0  0  0
    0.0000    0.0000    0.0000 H   0  0  0  0  0  0  0  0  0  0  0  0
    0.0000    0.0000    0.0000 H   0  0  0  0  0  0  0  0  0  0  0  0
    0.0000    0.0000    0.0000 H   0  0  0  0  0  0  0  0  0  0  0  0
    0.0000    0.0000    0.0000 H   0  0  0  0  0  0  0  0  0  0  0  0
    0.0000    0.0000    0.0000 H   0  0  0  0  0  0  0  0  0  0  0  0
    0.0000    0.0000    0.0000 H   0  0  0  0  0  0  0  0  0  0  0  0
    0.0000    0.0000    0.0000 H   0  0  0  0  0  0  0  0  0  0  0  0
    0.0000    0.0000    0.0000 H   0  0  0  0  0  0  0  0  0  0  0  0
    0.0000    0.0000    0.0000 H   0  0  0  0  0  0  0  0  0  0  0  0
    0.0000    0.0000    0.0000 H   0  0  0  0  0  0  0  0  0  0  0  0
    0.0000    0.0000    0.0000 H   0  0  0  0  0  0  0  0  0  0  0  0
    0.0000    0.0000    0.0000 H   0  0  0  0  0  0  0  0  0  0  0  0
    0.0000    0.0000    0.0000 H   0  0  0  0  0  0  0  0  0  0  0  0
    0.0000    0.0000    0.0000 H   0  0  0  0  0  0  0  0  0  0  0  0
    0.0000    0.0000    0.0000 H   0  0  0  0  0  0  0  0  0  0  0  0
    0.0000    0.0000    0.0000 H   0  0  0  0  0  0  0  0  0  0  0  0
    0.0000    0.0000    0.0000 H   0  0  0  0  0  0  0  0  0  0  0  0
    0.0000    0.0000    0.0000 H   0  0  0  0  0  0  0  0  0  0  0  0
    0.0000    0.0000    0.0000 H   0  0  0  0  0  0  0  0  0  0  0  0
    0.0000    0.0000    0.0000 H   0  0  0  0  0  0  0  0  0  0  0  0
  1 41  1  0
  1 57  1  0
  2 42  1  0
  2 58  1  0
  3 43  1  0
  3 59  1  0
  4 44  1  0
  4 60  1  0
  5 45  1  0
  5 61  1  0
  6 46  1  0
  6 62  1  0
  7 51  1  0
  7 67  1  0
  8 52  1  0
  8 68  1  0
  9 53  1  0
  9 69  1  0
 10 54  1  0
 10 70  1  0
 11 55  1  0
 11 71  1  0
 12 56  1  0
 12 72  1  0
 13 57  2  0
 14 58  2  0
 15 17  1  0
 15 19  1  0
 15 21  1  0
 15 27  1  0
 16 18  1  0
 16 20  1  0
 16 22  1  0
 16 28  1  0
 17 23  1  0
 17 29  1  6
 18 24  1  0
 18 30  1  1
 19 25  1  0
 20 26  1  0
 21 33  1  0
 22 34  1  0
 23 31  2  0
 23 35  1  0
 24 32  2  0
 24 36  1  0
 25 31  1  0
 26 32  1  0
 29 37  1  0
 30 38  1  0
 31 39  1  0
 32 40  1  0
 33 41  1  0
 34 42  1  0
 35 43  2  0
 36 44  2  0
 37 47  2  0
 37 49  1  0
 38 48  2  0
 38 50  1  0
 39 45  2  0
 40 46  2  0
 43 45  1  0
 44 46  1  0
 47 53  1  0
 48 54  1  0
 49 51  2  0
 50 52  2  0
 51 55  1  0
 52 56  1  0
 53 55  2  0
 54 56  2  0
 57 63  1  0
 58 64  1  0
 63 65  1  0
 64 66  1  0
 65 73  1  0
 66 74  1  0
 73 74  2  0
 17 75  1  0
 18 76  1  0
 19 77  1  0
 19 78  1  0
 20 79  1  0
 20 80  1  0
 21 81  1  0
 21 82  1  0
 22 83  1  0
 22 84  1  0
 25 85  1  0
 25 86  1  0
 26 87  1  0
 26 88  1  0
 27 89  1  0
 27 90  1  0
 27 91  1  0
 28 92  1  0
 28 93  1  0
 28 94  1  0
 29 95  1  0
 29 96  1  0
 30 97  1  0
 30 98  1  0
 33 99  1  0
 33100  1  0
 34101  1  0
 34102  1  0
 35103  1  0
 36104  1  0
 39105  1  0
 40106  1  0
 41107  1  0
 41108  1  0
 42109  1  0
 42110  1  0
 47111  1  0
 48112  1  0
 49113  1  0
 50114  1  0
 59115  1  0
 59116  1  0
 59117  1  0
 60118  1  0
 60119  1  0
 60120  1  0
 61121  1  0
 61122  1  0
 61123  1  0
 62124  1  0
 62125  1  0
 62126  1  0
 63127  1  0
 63128  1  0
 64129  1  0
 64130  1  0
 65131  1  0
 65132  1  0
 66133  1  0
 66134  1  0
 67135  1  0
 67136  1  0
 67137  1  0
 68138  1  0
 68139  1  0
 68140  1  0
 69141  1  0
 69142  1  0
 69143  1  0
 70144  1  0
 70145  1  0
 70146  1  0
 71147  1  0
 71148  1  0
 71149  1  0
 72150  1  0
 72151  1  0
 72152  1  0
 73153  1  0
 74154  1  0
M  CHG  2  15   1  16   1
M  END
>  <ALOGPS_LOGP>  (1) 
3.80

>  <ALOGPS_LOGS>  (1) 
-7.53

>  <ALOGPS_SOLUBILITY>  (1) 
3.26e-05 g/l

>  <DATABASE_ID>  (1) 
DB01226

>  <DATABASE_NAME>  (1) 
drugbank

>  <DRUGBANK_ID>  (1) 
DB01226

>  <DRUG_GROUPS>  (1) 
approved

>  <EXACT_MASS>  (1) 
1028.560955278

>  <FORMULA>  (1) 
C58H80N2O14

>  <GENERIC_NAME>  (1) 
Mivacurium

>  <INCHI_IDENTIFIER>  (1) 
InChI=1S/C58H80N2O14/c1-59(25-21-41-35-47(63-3)49(65-5)37-43(41)45(59)29-39-31-51(67-7)57(71-11)52(32-39)68-8)23-17-27-73-55(61)19-15-13-14-16-20-56(62)74-28-18-24-60(2)26-22-42-36-48(64-4)50(66-6)38-44(42)46(60)30-40-33-53(69-9)58(72-12)54(34-40)70-10/h13-14,31-38,45-46H,15-30H2,1-12H3/q+2/b14-13+/t45-,46-,59?,60?/m1/s1

>  <INCHI_KEY>  (1) 
ILVYCEVXHALBSC-OTBYEXOQSA-N

>  <JCHEM_ACCEPTOR_COUNT>  (1) 
12

>  <JCHEM_AVERAGE_POLARIZABILITY>  (1) 
116.68258620365387

>  <JCHEM_BIOAVAILABILITY>  (1) 
0

>  <JCHEM_DONOR_COUNT>  (1) 
0

>  <JCHEM_FORMAL_CHARGE>  (1) 
2

>  <JCHEM_GHOSE_FILTER>  (1) 
0

>  <JCHEM_IUPAC>  (1) 
(1R)-2-(3-{[(4E)-8-{3-[(1R)-6,7-dimethoxy-2-methyl-1-[(3,4,5-trimethoxyphenyl)methyl]-1,2,3,4-tetrahydroisoquinolin-2-ium-2-yl]propoxy}-8-oxooct-4-enoyl]oxy}propyl)-6,7-dimethoxy-2-methyl-1-[(3,4,5-trimethoxyphenyl)methyl]-1,2,3,4-tetrahydroisoquinolin-2-ium

>  <JCHEM_LOGP>  (1) 
-0.7599931869434924

>  <JCHEM_MDDR_LIKE_RULE>  (1) 
1

>  <JCHEM_NUMBER_OF_RINGS>  (1) 
6

>  <JCHEM_PHYSIOLOGICAL_CHARGE>  (1) 
2

>  <JCHEM_PKA>  (1) 
19.190317149321665

>  <JCHEM_PKA_STRONGEST_ACIDIC>  (1) 
18.588257157993706

>  <JCHEM_PKA_STRONGEST_BASIC>  (1) 
-4.119794035665876

>  <JCHEM_POLAR_SURFACE_AREA>  (1) 
144.90000000000003

>  <JCHEM_REFRACTIVITY>  (1) 
308.7439999999999

>  <JCHEM_ROTATABLE_BOND_COUNT>  (1) 
30

>  <JCHEM_RULE_OF_FIVE>  (1) 
0

>  <JCHEM_TRADITIONAL_IUPAC>  (1) 
mivacurium

>  <JCHEM_VEBER_RULE>  (1) 
0

>  <MOLECULAR_WEIGHT>  (1) 
1029.2608

>  <PRODUCTS>  (1) 
Mivacron

>  <SALTS>  (1) 
Mivacurium chloride

>  <SECONDARY_ACCESSION_NUMBERS>  (1) 
APRD01119

>  <SMILES>  (1) 
COC1=CC(C[C@@H]2C3=CC(OC)=C(OC)C=C3CC[N+]2(C)CCCOC(=O)CC\C=C\CCC(=O)OCCC[N+]2(C)CCC3=CC(OC)=C(OC)C=C3[C@H]2CC2=CC(OC)=C(OC)C(OC)=C2)=CC(OC)=C1OC

$$$$
