1656
     RDKit          2D

 40 42  0  0  0  0  0  0  0  0999 V2000
    7.4765    2.0625    0.0000 Cl  0  0  0  0  0  0  0  0  0  0  0  0
    4.6185    2.0625    0.0000 Cl  0  0  0  0  0  0  0  0  0  0  0  0
    6.7620   -2.4751    0.0000 F   0  0  0  0  0  0  0  0  0  0  0  0
    6.0475   -3.7126    0.0000 F   0  0  0  0  0  0  0  0  0  0  0  0
    3.9041   -1.6500    0.0000 O   0  0  0  0  0  0  0  0  0  0  0  0
    5.3330   -2.4751    0.0000 O   0  0  0  0  0  0  0  0  0  0  0  0
    4.6185    1.2375    0.0000 O   0  0  0  0  0  0  0  0  0  0  0  0
    6.0475    1.2375    0.0000 N   0  0  0  0  0  0  0  0  0  0  0  0
    6.0475    3.7126    0.0000 N   0  0  0  0  0  0  0  0  0  0  0  0
    2.4751   -1.6500    0.0000 C   0  0  0  0  0  0  0  0  0  0  0  0
    2.0625   -2.3645    0.0000 C   0  0  0  0  0  0  0  0  0  0  0  0
    1.6500   -1.6500    0.0000 C   0  0  0  0  0  0  0  0  0  0  0  0
    3.1895   -1.2375    0.0000 C   0  0  0  0  0  0  0  0  0  0  0  0
    4.6185   -1.2375    0.0000 C   0  0  0  0  0  0  0  0  0  0  0  0
    5.3330   -1.6500    0.0000 C   0  0  0  0  0  0  0  0  0  0  0  0
    4.6185   -0.4125    0.0000 C   0  0  0  0  0  0  0  0  0  0  0  0
    5.3330    0.0000    0.0000 C   0  0  0  0  0  0  0  0  0  0  0  0
    6.0475   -1.2375    0.0000 C   0  0  0  0  0  0  0  0  0  0  0  0
    6.0475   -0.4125    0.0000 C   0  0  0  0  0  0  0  0  0  0  0  0
    5.3330    0.8250    0.0000 C   0  0  0  0  0  0  0  0  0  0  0  0
    6.0475    2.0625    0.0000 C   0  0  0  0  0  0  0  0  0  0  0  0
    6.0475   -2.8876    0.0000 C   0  0  0  0  0  0  0  0  0  0  0  0
    6.7620    2.4751    0.0000 C   0  0  0  0  0  0  0  0  0  0  0  0
    5.3330    2.4751    0.0000 C   0  0  0  0  0  0  0  0  0  0  0  0
    6.7620    3.3001    0.0000 C   0  0  0  0  0  0  0  0  0  0  0  0
    5.3330    3.3001    0.0000 C   0  0  0  0  0  0  0  0  0  0  0  0
    0.0000    0.0000    0.0000 H   0  0  0  0  0  0  0  0  0  0  0  0
    0.0000    0.0000    0.0000 H   0  0  0  0  0  0  0  0  0  0  0  0
    0.0000    0.0000    0.0000 H   0  0  0  0  0  0  0  0  0  0  0  0
    0.0000    0.0000    0.0000 H   0  0  0  0  0  0  0  0  0  0  0  0
    0.0000    0.0000    0.0000 H   0  0  0  0  0  0  0  0  0  0  0  0
    0.0000    0.0000    0.0000 H   0  0  0  0  0  0  0  0  0  0  0  0
    0.0000    0.0000    0.0000 H   0  0  0  0  0  0  0  0  0  0  0  0
    0.0000    0.0000    0.0000 H   0  0  0  0  0  0  0  0  0  0  0  0
    0.0000    0.0000    0.0000 H   0  0  0  0  0  0  0  0  0  0  0  0
    0.0000    0.0000    0.0000 H   0  0  0  0  0  0  0  0  0  0  0  0
    0.0000    0.0000    0.0000 H   0  0  0  0  0  0  0  0  0  0  0  0
    0.0000    0.0000    0.0000 H   0  0  0  0  0  0  0  0  0  0  0  0
    0.0000    0.0000    0.0000 H   0  0  0  0  0  0  0  0  0  0  0  0
    0.0000    0.0000    0.0000 H   0  0  0  0  0  0  0  0  0  0  0  0
  1 23  1  0
  2 24  1  0
  3 22  1  0
  4 22  1  0
  5 13  1  0
  5 14  1  0
  6 15  1  0
  6 22  1  0
  7 20  2  0
  8 20  1  0
  8 21  1  0
  9 25  2  0
  9 26  1  0
 10 11  1  0
 10 12  1  0
 10 13  1  0
 11 12  1  0
 14 15  2  0
 14 16  1  0
 15 18  1  0
 16 17  2  0
 17 19  1  0
 17 20  1  0
 18 19  2  0
 21 23  2  0
 21 24  1  0
 23 25  1  0
 24 26  2  0
  8 27  1  0
 10 28  1  0
 11 29  1  0
 11 30  1  0
 12 31  1  0
 12 32  1  0
 13 33  1  0
 13 34  1  0
 16 35  1  0
 18 36  1  0
 19 37  1  0
 22 38  1  0
 25 39  1  0
 26 40  1  0
M  END
>  <ALOGPS_LOGP>  (1) 
4.47

>  <ALOGPS_LOGS>  (1) 
-4.81

>  <ALOGPS_SOLUBILITY>  (1) 
6.20e-03 g/l

>  <DATABASE_ID>  (1) 
DB01656

>  <DATABASE_NAME>  (1) 
drugbank

>  <DRUGBANK_ID>  (1) 
DB01656

>  <DRUG_GROUPS>  (1) 
approved

>  <EXACT_MASS>  (1) 
402.034954148

>  <FORMULA>  (1) 
C17H14Cl2F2N2O3

>  <GENERIC_NAME>  (1) 
Roflumilast

>  <INCHI_IDENTIFIER>  (1) 
InChI=1S/C17H14Cl2F2N2O3/c18-11-6-22-7-12(19)15(11)23-16(24)10-3-4-13(26-17(20)21)14(5-10)25-8-9-1-2-9/h3-7,9,17H,1-2,8H2,(H,22,23,24)

>  <INCHI_KEY>  (1) 
MNDBXUUTURYVHR-UHFFFAOYSA-N

>  <JCHEM_ACCEPTOR_COUNT>  (1) 
4

>  <JCHEM_AVERAGE_POLARIZABILITY>  (1) 
35.900799313481286

>  <JCHEM_BIOAVAILABILITY>  (1) 
1

>  <JCHEM_DONOR_COUNT>  (1) 
1

>  <JCHEM_FORMAL_CHARGE>  (1) 
0

>  <JCHEM_GHOSE_FILTER>  (1) 
1

>  <JCHEM_IUPAC>  (1) 
3-(cyclopropylmethoxy)-N-(3,5-dichloropyridin-4-yl)-4-(difluoromethoxy)benzamide

>  <JCHEM_LOGP>  (1) 
4.447540533

>  <JCHEM_MDDR_LIKE_RULE>  (1) 
1

>  <JCHEM_NUMBER_OF_RINGS>  (1) 
3

>  <JCHEM_PHYSIOLOGICAL_CHARGE>  (1) 
0

>  <JCHEM_PKA_STRONGEST_ACIDIC>  (1) 
8.18230224536616

>  <JCHEM_PKA_STRONGEST_BASIC>  (1) 
2.3996089915454157

>  <JCHEM_POLAR_SURFACE_AREA>  (1) 
60.45

>  <JCHEM_REFRACTIVITY>  (1) 
93.92149999999998

>  <JCHEM_ROTATABLE_BOND_COUNT>  (1) 
7

>  <JCHEM_RULE_OF_FIVE>  (1) 
1

>  <JCHEM_TRADITIONAL_IUPAC>  (1) 
roflumilast

>  <JCHEM_VEBER_RULE>  (1) 
0

>  <MOLECULAR_WEIGHT>  (1) 
403.207

>  <PRODUCTS>  (1) 
Daliresp; Daxas; Libertek

>  <SECONDARY_ACCESSION_NUMBERS>  (1) 
EXPT02802

>  <SMILES>  (1) 
FC(F)OC1=C(OCC2CC2)C=C(C=C1)C(=O)NC1=C(Cl)C=NC=C1Cl

$$$$
