
     RDKit          2D

 45 49  0  0  0  0  0  0  0  0999 V2000
   -0.7594    0.8250    0.0000 C   0  0  0  0  0  0  0  0  0  0  0  0
   -1.4739    0.4125    0.0000 C   0  0  0  0  0  0  0  0  0  0  0  0
   -1.4738    2.0625    0.0000 C   0  0  0  0  0  0  0  0  0  0  0  0
   -2.1883    1.6501    0.0000 C   0  0  0  0  0  0  0  0  0  0  0  0
   -2.1883    0.8250    0.0000 C   0  0  0  0  0  0  0  0  0  0  0  0
   -0.7594    1.6500    0.0000 C   0  0  0  0  0  0  0  0  0  0  0  0
   -2.1883   -0.8250    0.0000 C   0  0  0  0  0  0  0  0  0  0  0  0
   -2.1883   -1.6501    0.0000 C   0  0  0  0  0  0  0  0  0  0  0  0
   -1.4738   -2.0625    0.0000 C   0  0  0  0  0  0  0  0  0  0  0  0
   -0.7594   -1.6500    0.0000 C   0  0  0  0  0  0  0  0  0  0  0  0
   -0.0449   -0.4125    0.0000 C   0  0  0  0  0  0  0  0  0  0  0  0
    0.6695   -0.8250    0.0000 N   0  0  0  0  0  0  0  0  0  0  0  0
   -0.7594   -0.8250    0.0000 C   0  0  0  0  0  0  0  0  0  0  0  0
   -0.0449   -1.2374    0.0000 O   0  0  0  0  0  0  0  0  0  0  0  0
   -0.0450    0.4125    0.0000 C   0  0  0  0  0  0  0  0  0  0  0  0
   -1.4739   -0.4125    0.0000 C   0  0  0  0  0  0  0  0  0  0  0  0
   -0.7594    0.0000    0.0000 C   0  0  0  0  0  0  0  0  0  0  0  0
    0.6840    0.0000    0.0000 C   0  0  0  0  0  0  0  0  0  0  0  0
   -2.9028   -2.0626    0.0000 O   0  0  0  0  0  0  0  0  0  0  0  0
   -2.7215    0.0410    0.0000 O   0  0  0  0  0  0  0  0  0  0  0  0
   -2.9028    2.0626    0.0000 O   0  0  0  0  0  0  0  0  0  0  0  0
    1.4945   -0.8250    0.0000 C   0  0  0  0  0  0  0  0  0  0  0  0
    2.0779   -1.4084    0.0000 C   0  0  0  0  0  0  0  0  0  0  0  0
    2.9029   -1.4084    0.0000 C   0  0  0  0  0  0  0  0  0  0  0  0
    0.0000    0.0000    0.0000 H   0  0  0  0  0  0  0  0  0  0  0  0
    0.0000    0.0000    0.0000 H   0  0  0  0  0  0  0  0  0  0  0  0
    0.0000    0.0000    0.0000 H   0  0  0  0  0  0  0  0  0  0  0  0
    0.0000    0.0000    0.0000 H   0  0  0  0  0  0  0  0  0  0  0  0
    0.0000    0.0000    0.0000 H   0  0  0  0  0  0  0  0  0  0  0  0
    0.0000    0.0000    0.0000 H   0  0  0  0  0  0  0  0  0  0  0  0
    0.0000    0.0000    0.0000 H   0  0  0  0  0  0  0  0  0  0  0  0
    0.0000    0.0000    0.0000 H   0  0  0  0  0  0  0  0  0  0  0  0
    0.0000    0.0000    0.0000 H   0  0  0  0  0  0  0  0  0  0  0  0
    0.0000    0.0000    0.0000 H   0  0  0  0  0  0  0  0  0  0  0  0
    0.0000    0.0000    0.0000 H   0  0  0  0  0  0  0  0  0  0  0  0
    0.0000    0.0000    0.0000 H   0  0  0  0  0  0  0  0  0  0  0  0
    0.0000    0.0000    0.0000 H   0  0  0  0  0  0  0  0  0  0  0  0
    0.0000    0.0000    0.0000 H   0  0  0  0  0  0  0  0  0  0  0  0
    0.0000    0.0000    0.0000 H   0  0  0  0  0  0  0  0  0  0  0  0
    0.0000    0.0000    0.0000 H   0  0  0  0  0  0  0  0  0  0  0  0
    0.0000    0.0000    0.0000 H   0  0  0  0  0  0  0  0  0  0  0  0
    0.0000    0.0000    0.0000 H   0  0  0  0  0  0  0  0  0  0  0  0
    0.0000    0.0000    0.0000 H   0  0  0  0  0  0  0  0  0  0  0  0
    0.0000    0.0000    0.0000 H   0  0  0  0  0  0  0  0  0  0  0  0
    0.0000    0.0000    0.0000 H   0  0  0  0  0  0  0  0  0  0  0  0
 13 11  1  0
 15  1  1  0
  2 16  1  0
  1  6  2  0
  2  1  1  0
  5  2  2  0
  3  4  2  0
  3  6  1  0
  4  5  1  0
 10 13  1  0
 16 13  1  0
 16  7  1  0
  7  8  1  0
  8  9  1  0
  9 10  1  0
 11 12  1  0
 12 18  1  0
 13 14  1  1
 11 15  1  0
 16 17  1  1
 17 18  1  0
  8 19  2  0
  5 20  1  0
  7 20  1  0
  4 21  1  0
 12 22  1  0
 22 23  1  0
 23 24  2  3
  3 25  1  0
  6 26  1  0
  7 27  1  1
  9 28  1  0
  9 29  1  0
 10 30  1  0
 10 31  1  0
 11 32  1  6
 14 33  1  0
 15 34  1  0
 15 35  1  0
 17 36  1  0
 17 37  1  0
 18 38  1  0
 18 39  1  0
 21 40  1  0
 22 41  1  0
 22 42  1  0
 23 43  1  0
 24 44  1  0
 24 45  1  0
M  END
>  <ALOGPS_LOGP>  (1) 
1.47

>  <ALOGPS_LOGS>  (1) 
-1.76

>  <ALOGPS_SOLUBILITY>  (1) 
5.64e+00 g/l

>  <DATABASE_ID>  (1) 
DB01183

>  <DATABASE_NAME>  (1) 
drugbank

>  <DRUGBANK_ID>  (1) 
DB01183

>  <DRUG_GROUPS>  (1) 
approved; vet_approved

>  <EXACT_MASS>  (1) 
327.147058165

>  <FORMULA>  (1) 
C19H21NO4

>  <GENERIC_NAME>  (1) 
Naloxone

>  <INCHI_IDENTIFIER>  (1) 
InChI=1S/C19H21NO4/c1-2-8-20-9-7-18-15-11-3-4-12(21)16(15)24-17(18)13(22)5-6-19(18,23)14(20)10-11/h2-4,14,17,21,23H,1,5-10H2/t14-,17+,18+,19-/m1/s1

>  <INCHI_KEY>  (1) 
UZHSEJADLWPNLE-GRGSLBFTSA-N

>  <JCHEM_ACCEPTOR_COUNT>  (1) 
5

>  <JCHEM_ATOM_COUNT>  (1) 
45

>  <JCHEM_AVERAGE_POLARIZABILITY>  (1) 
33.828785511966494

>  <JCHEM_BIOAVAILABILITY>  (1) 
1

>  <JCHEM_DONOR_COUNT>  (1) 
2

>  <JCHEM_FORMAL_CHARGE>  (1) 
0

>  <JCHEM_GHOSE_FILTER>  (1) 
1

>  <JCHEM_IUPAC>  (1) 
(1S,5R,13R,17S)-10,17-dihydroxy-4-(prop-2-en-1-yl)-12-oxa-4-azapentacyclo[9.6.1.0^{1,13}.0^{5,17}.0^{7,18}]octadeca-7(18),8,10-trien-14-one

>  <JCHEM_LOGP>  (1) 
1.620221160000001

>  <JCHEM_MDDR_LIKE_RULE>  (1) 
0

>  <JCHEM_NUMBER_OF_RINGS>  (1) 
5

>  <JCHEM_PHYSIOLOGICAL_CHARGE>  (1) 
1

>  <JCHEM_PKA>  (1) 
13.58559645438904

>  <JCHEM_PKA_STRONGEST_ACIDIC>  (1) 
10.066372343167222

>  <JCHEM_PKA_STRONGEST_BASIC>  (1) 
7.838895733634625

>  <JCHEM_POLAR_SURFACE_AREA>  (1) 
70.0

>  <JCHEM_REFRACTIVITY>  (1) 
88.72220000000002

>  <JCHEM_ROTATABLE_BOND_COUNT>  (1) 
2

>  <JCHEM_RULE_OF_FIVE>  (1) 
1

>  <JCHEM_TRADITIONAL_IUPAC>  (1) 
(1S,5R,13R,17S)-10,17-dihydroxy-4-(prop-2-en-1-yl)-12-oxa-4-azapentacyclo[9.6.1.0^{1,13}.0^{5,17}.0^{7,18}]octadeca-7(18),8,10-trien-14-one

>  <JCHEM_VEBER_RULE>  (1) 
0

>  <MOLECULAR_WEIGHT>  (1) 
327.3743

>  <PRODUCTS>  (1) 
Act Buprenorphine/naloxone; Bunavail; Buprenorphine HCl and Naloxone HCl; Buprenorphine Hydrochloride and Naloxone Hydrochloride Dihydrate; Buprenorphine and Naloxone; Evzio; Injectable Naloxone Hydrochloride; Mylan-buprenorphine/naloxone; Naloxone HCl Injection - 0.4mg/ml USP; Naloxone HCl Injection - 1mg/ml USP; Naloxone Hydrochloride; Naloxone Hydrochloride Injection; Naloxone Hydrochloride Injection Sdz Preservative Free; Naloxone Hydrochloride Injection USP; Naloxone Hydrochloride Injection, USP; Naloxone Injectable; Narcan; Narcan Injection 0.02mg/ml; Narcan Injection 0.4mg/ml; Narcan Injection 1mg/ml; Narcan Nasal Spray; PMS-buprenorphine-naloxone; Pentazocine HCl and Naloxone HCl; Pentazocine Hydrochloride and Naloxone Hydrochloride; Pentazocine and Naloxone; Pentazocine and naloxone; S.O.S. Naloxone Hydrochloride Injection; Suboxone; Targin; Zubsolv

>  <SALTS>  (1) 
Naloxone hydrochloride; Naloxone hydrochloride dihydrate

>  <SECONDARY_ACCESSION_NUMBERS>  (1) 
APRD00025

>  <SMILES>  (1) 
OC1=CC=C2C[C@H]3N(CC=C)CC[C@@]45[C@@H](OC1=C24)C(=O)CC[C@@]35O

>  <SYNONYMS>  (1) 
(−)-naloxone; 1-N-Allyl-14-hydroxynordihydromorphinone; 17-allyl-3,14-dihydroxy-4,5α-epoxymorphinan-6-one; Nalossone; Naloxona; Naloxone; Naloxonum

$$$$
