
     RDKit          2D

 41 41  0  0  0  0  0  0  0  0999 V2000
   14.5209   -6.9363    0.0000 C   0  0  0  0  0  0  0  0  0  0  0  0
   14.5209   -6.1054    0.0000 N   0  0  0  0  0  0  0  0  0  0  0  0
   15.2457   -7.3547    0.0000 O   0  0  0  0  0  0  0  0  0  0  0  0
    8.8044   -4.4435    0.0000 N   0  0  0  0  0  0  0  0  0  0  0  0
   13.8137   -5.6928    0.0000 C   0  0  0  0  0  0  0  0  0  0  0  0
   11.6568   -4.4435    0.0000 O   0  0  0  0  0  0  0  0  0  0  0  0
   10.2365   -4.4435    0.0000 C   0  0  0  0  0  0  0  0  0  0  0  0
   12.3816   -4.8678    0.0000 C   0  0  0  0  0  0  0  0  0  0  0  0
    9.5176   -4.8501    0.0000 C   0  0  0  0  0  0  0  0  0  0  0  0
   10.9496   -4.8501    0.0000 C   0  0  0  0  0  0  0  0  0  0  0  0
   13.8137   -4.8678    0.0000 C   0  0  0  0  0  0  0  0  0  0  0  0
   13.1006   -6.0995    0.0000 C   0  0  0  0  0  0  0  0  0  0  0  0
   13.1006   -4.4435    0.0000 C   0  0  0  0  0  0  0  0  0  0  0  0
   12.3816   -5.6928    0.0000 C   0  0  0  0  0  0  0  0  0  0  0  0
   10.2365   -3.6126    0.0000 O   0  0  0  0  0  0  0  0  0  0  0  0
    8.0855   -4.8501    0.0000 C   0  0  0  0  0  0  0  0  0  0  0  0
   13.8137   -7.3547    0.0000 C   0  0  0  0  0  0  0  0  0  0  0  0
    7.3724   -4.4435    0.0000 C   0  0  0  0  0  0  0  0  0  0  0  0
    8.0855   -5.6811    0.0000 C   0  0  0  0  0  0  0  0  0  0  0  0
    0.0000    0.0000    0.0000 H   0  0  0  0  0  0  0  0  0  0  0  0
    0.0000    0.0000    0.0000 H   0  0  0  0  0  0  0  0  0  0  0  0
    0.0000    0.0000    0.0000 H   0  0  0  0  0  0  0  0  0  0  0  0
    0.0000    0.0000    0.0000 H   0  0  0  0  0  0  0  0  0  0  0  0
    0.0000    0.0000    0.0000 H   0  0  0  0  0  0  0  0  0  0  0  0
    0.0000    0.0000    0.0000 H   0  0  0  0  0  0  0  0  0  0  0  0
    0.0000    0.0000    0.0000 H   0  0  0  0  0  0  0  0  0  0  0  0
    0.0000    0.0000    0.0000 H   0  0  0  0  0  0  0  0  0  0  0  0
    0.0000    0.0000    0.0000 H   0  0  0  0  0  0  0  0  0  0  0  0
    0.0000    0.0000    0.0000 H   0  0  0  0  0  0  0  0  0  0  0  0
    0.0000    0.0000    0.0000 H   0  0  0  0  0  0  0  0  0  0  0  0
    0.0000    0.0000    0.0000 H   0  0  0  0  0  0  0  0  0  0  0  0
    0.0000    0.0000    0.0000 H   0  0  0  0  0  0  0  0  0  0  0  0
    0.0000    0.0000    0.0000 H   0  0  0  0  0  0  0  0  0  0  0  0
    0.0000    0.0000    0.0000 H   0  0  0  0  0  0  0  0  0  0  0  0
    0.0000    0.0000    0.0000 H   0  0  0  0  0  0  0  0  0  0  0  0
    0.0000    0.0000    0.0000 H   0  0  0  0  0  0  0  0  0  0  0  0
    0.0000    0.0000    0.0000 H   0  0  0  0  0  0  0  0  0  0  0  0
    0.0000    0.0000    0.0000 H   0  0  0  0  0  0  0  0  0  0  0  0
    0.0000    0.0000    0.0000 H   0  0  0  0  0  0  0  0  0  0  0  0
    0.0000    0.0000    0.0000 H   0  0  0  0  0  0  0  0  0  0  0  0
    0.0000    0.0000    0.0000 H   0  0  0  0  0  0  0  0  0  0  0  0
  2  1  1  0
  3  1  2  0
  4  9  1  0
  5  2  1  0
  6  8  1  0
  7 10  1  0
  8 14  1  0
  9  7  1  0
 10  6  1  0
 11  5  2  0
 12  5  1  0
 13 11  1  0
 14 12  2  0
 15  7  1  0
 16  4  1  0
 17  1  1  0
 18 16  1  0
 19 16  1  0
 13  8  2  0
  2 20  1  0
  4 21  1  0
  7 22  1  0
  9 23  1  0
  9 24  1  0
 10 25  1  0
 10 26  1  0
 11 27  1  0
 12 28  1  0
 13 29  1  0
 14 30  1  0
 15 31  1  0
 16 32  1  0
 17 33  1  0
 17 34  1  0
 17 35  1  0
 18 36  1  0
 18 37  1  0
 18 38  1  0
 19 39  1  0
 19 40  1  0
 19 41  1  0
M  END
>  <ALOGPS_LOGP>  (1) 
0.53

>  <ALOGPS_LOGS>  (1) 
-2.74

>  <ALOGPS_SOLUBILITY>  (1) 
4.90e-01 g/l

>  <DATABASE_ID>  (1) 
DB01297

>  <DATABASE_NAME>  (1) 
drugbank

>  <DRUGBANK_ID>  (1) 
DB01297

>  <DRUG_GROUPS>  (1) 
approved

>  <EXACT_MASS>  (1) 
266.16304258

>  <FORMULA>  (1) 
C14H22N2O3

>  <GENERIC_NAME>  (1) 
Practolol

>  <INCHI_IDENTIFIER>  (1) 
InChI=1S/C14H22N2O3/c1-10(2)15-8-13(18)9-19-14-6-4-12(5-7-14)16-11(3)17/h4-7,10,13,15,18H,8-9H2,1-3H3,(H,16,17)

>  <INCHI_KEY>  (1) 
DURULFYMVIFBIR-UHFFFAOYSA-N

>  <JCHEM_ACCEPTOR_COUNT>  (1) 
4

>  <JCHEM_AVERAGE_POLARIZABILITY>  (1) 
30.387856553619134

>  <JCHEM_BIOAVAILABILITY>  (1) 
1

>  <JCHEM_DONOR_COUNT>  (1) 
3

>  <JCHEM_FORMAL_CHARGE>  (1) 
0

>  <JCHEM_GHOSE_FILTER>  (1) 
1

>  <JCHEM_IUPAC>  (1) 
N-(4-{2-hydroxy-3-[(propan-2-yl)amino]propoxy}phenyl)acetamide

>  <JCHEM_LOGP>  (1) 
0.8319295400000002

>  <JCHEM_MDDR_LIKE_RULE>  (1) 
0

>  <JCHEM_NUMBER_OF_RINGS>  (1) 
1

>  <JCHEM_PHYSIOLOGICAL_CHARGE>  (1) 
1

>  <JCHEM_PKA>  (1) 
15.033985011099048

>  <JCHEM_PKA_STRONGEST_ACIDIC>  (1) 
14.034330679456996

>  <JCHEM_PKA_STRONGEST_BASIC>  (1) 
9.666164439953146

>  <JCHEM_POLAR_SURFACE_AREA>  (1) 
70.59

>  <JCHEM_REFRACTIVITY>  (1) 
75.23850000000002

>  <JCHEM_ROTATABLE_BOND_COUNT>  (1) 
7

>  <JCHEM_RULE_OF_FIVE>  (1) 
1

>  <JCHEM_TRADITIONAL_IUPAC>  (1) 
practolol

>  <JCHEM_VEBER_RULE>  (1) 
0

>  <MOLECULAR_WEIGHT>  (1) 
266.3361

>  <SALTS>  (1) 
Practolol hydrochloride

>  <SMILES>  (1) 
CC(C)NCC(O)COC1=CC=C(NC(C)=O)C=C1

$$$$
