1115
     RDKit          2D

 43 44  0  0  0  0  0  0  0  0999 V2000
    6.6515   -0.5693    0.0000 O   0  0  0  0  0  0  0  0  0  0  0  0
    2.3645   -0.5693    0.0000 O   0  0  0  0  0  0  0  0  0  0  0  0
    5.9370    0.6683    0.0000 O   0  0  0  0  0  0  0  0  0  0  0  0
    3.0791    0.6683    0.0000 O   0  0  0  0  0  0  0  0  0  0  0  0
    5.9370    2.3183    0.0000 O   0  0  0  0  0  0  0  0  0  0  0  0
    6.6515    1.0808    0.0000 O   0  0  0  0  0  0  0  0  0  0  0  0
    4.5080   -1.8068    0.0000 N   0  0  0  0  0  0  0  0  0  0  0  0
    5.9370    1.4933    0.0000 N   0  0  0  0  0  0  0  0  0  0  0  0
    4.5080   -0.1568    0.0000 C   0  0  0  0  0  0  0  0  0  0  0  0
    5.2224   -0.5693    0.0000 C   0  0  0  0  0  0  0  0  0  0  0  0
    3.7935   -0.5693    0.0000 C   0  0  0  0  0  0  0  0  0  0  0  0
    4.5080    0.6683    0.0000 C   0  0  0  0  0  0  0  0  0  0  0  0
    5.2224   -1.3943    0.0000 C   0  0  0  0  0  0  0  0  0  0  0  0
    3.7935   -1.3943    0.0000 C   0  0  0  0  0  0  0  0  0  0  0  0
    5.2224    1.0808    0.0000 C   0  0  0  0  0  0  0  0  0  0  0  0
    3.7935    1.0808    0.0000 C   0  0  0  0  0  0  0  0  0  0  0  0
    5.9370   -0.1568    0.0000 C   0  0  0  0  0  0  0  0  0  0  0  0
    3.0791   -0.1568    0.0000 C   0  0  0  0  0  0  0  0  0  0  0  0
    5.9370   -1.8068    0.0000 C   0  0  0  0  0  0  0  0  0  0  0  0
    3.0791   -1.8068    0.0000 C   0  0  0  0  0  0  0  0  0  0  0  0
    5.2224    1.9058    0.0000 C   0  0  0  0  0  0  0  0  0  0  0  0
    3.7935    1.9058    0.0000 C   0  0  0  0  0  0  0  0  0  0  0  0
    4.5080    2.3183    0.0000 C   0  0  0  0  0  0  0  0  0  0  0  0
    7.3659   -0.1568    0.0000 C   0  0  0  0  0  0  0  0  0  0  0  0
    1.6500   -0.1568    0.0000 C   0  0  0  0  0  0  0  0  0  0  0  0
    0.0000    0.0000    0.0000 H   0  0  0  0  0  0  0  0  0  0  0  0
    0.0000    0.0000    0.0000 H   0  0  0  0  0  0  0  0  0  0  0  0
    0.0000    0.0000    0.0000 H   0  0  0  0  0  0  0  0  0  0  0  0
    0.0000    0.0000    0.0000 H   0  0  0  0  0  0  0  0  0  0  0  0
    0.0000    0.0000    0.0000 H   0  0  0  0  0  0  0  0  0  0  0  0
    0.0000    0.0000    0.0000 H   0  0  0  0  0  0  0  0  0  0  0  0
    0.0000    0.0000    0.0000 H   0  0  0  0  0  0  0  0  0  0  0  0
    0.0000    0.0000    0.0000 H   0  0  0  0  0  0  0  0  0  0  0  0
    0.0000    0.0000    0.0000 H   0  0  0  0  0  0  0  0  0  0  0  0
    0.0000    0.0000    0.0000 H   0  0  0  0  0  0  0  0  0  0  0  0
    0.0000    0.0000    0.0000 H   0  0  0  0  0  0  0  0  0  0  0  0
    0.0000    0.0000    0.0000 H   0  0  0  0  0  0  0  0  0  0  0  0
    0.0000    0.0000    0.0000 H   0  0  0  0  0  0  0  0  0  0  0  0
    0.0000    0.0000    0.0000 H   0  0  0  0  0  0  0  0  0  0  0  0
    0.0000    0.0000    0.0000 H   0  0  0  0  0  0  0  0  0  0  0  0
    0.0000    0.0000    0.0000 H   0  0  0  0  0  0  0  0  0  0  0  0
    0.0000    0.0000    0.0000 H   0  0  0  0  0  0  0  0  0  0  0  0
    0.0000    0.0000    0.0000 H   0  0  0  0  0  0  0  0  0  0  0  0
  1 17  1  0
  1 24  1  0
  2 18  1  0
  2 25  1  0
  3 17  2  0
  4 18  2  0
  5  8  1  0
  6  8  2  0
  7 13  1  0
  7 14  1  0
  8 15  1  0
  9 10  1  0
  9 11  1  0
  9 12  1  0
 10 13  2  0
 10 17  1  0
 11 14  2  0
 11 18  1  0
 12 15  2  0
 12 16  1  0
 13 19  1  0
 14 20  1  0
 15 21  1  0
 16 22  2  0
 21 23  2  0
 22 23  1  0
  7 26  1  0
  9 27  1  0
 16 28  1  0
 19 29  1  0
 19 30  1  0
 19 31  1  0
 20 32  1  0
 20 33  1  0
 20 34  1  0
 21 35  1  0
 22 36  1  0
 23 37  1  0
 24 38  1  0
 24 39  1  0
 24 40  1  0
 25 41  1  0
 25 42  1  0
 25 43  1  0
M  CHG  2   5  -1   8   1
M  END
>  <ALOGPS_LOGP>  (1) 
2.49

>  <ALOGPS_LOGS>  (1) 
-4.29

>  <ALOGPS_SOLUBILITY>  (1) 
1.77e-02 g/l

>  <DATABASE_ID>  (1) 
DB01115

>  <DATABASE_NAME>  (1) 
drugbank

>  <DRUGBANK_ID>  (1) 
DB01115

>  <DRUG_GROUPS>  (1) 
approved

>  <EXACT_MASS>  (1) 
346.116486318

>  <FORMULA>  (1) 
C17H18N2O6

>  <GENERIC_NAME>  (1) 
Nifedipine

>  <INCHI_IDENTIFIER>  (1) 
InChI=1S/C17H18N2O6/c1-9-13(16(20)24-3)15(14(10(2)18-9)17(21)25-4)11-7-5-6-8-12(11)19(22)23/h5-8,15,18H,1-4H3

>  <INCHI_KEY>  (1) 
HYIMSNHJOBLJNT-UHFFFAOYSA-N

>  <INTERNATIONAL_BRANDS>  (1) 
Adapine; Afeditab; Coracten; Nifecard; Nifecor; Nifedical; NifedicalXL; Nifedipres

>  <JCHEM_ACCEPTOR_COUNT>  (1) 
5

>  <JCHEM_AVERAGE_POLARIZABILITY>  (1) 
33.845553195481514

>  <JCHEM_BIOAVAILABILITY>  (1) 
1

>  <JCHEM_DONOR_COUNT>  (1) 
1

>  <JCHEM_FORMAL_CHARGE>  (1) 
0

>  <JCHEM_GHOSE_FILTER>  (1) 
1

>  <JCHEM_IUPAC>  (1) 
3,5-dimethyl 2,6-dimethyl-4-(2-nitrophenyl)-1,4-dihydropyridine-3,5-dicarboxylate

>  <JCHEM_LOGP>  (1) 
1.8154942816666662

>  <JCHEM_MDDR_LIKE_RULE>  (1) 
0

>  <JCHEM_NUMBER_OF_RINGS>  (1) 
2

>  <JCHEM_PHYSIOLOGICAL_CHARGE>  (1) 
0

>  <JCHEM_PKA_STRONGEST_BASIC>  (1) 
5.32873774298485

>  <JCHEM_POLAR_SURFACE_AREA>  (1) 
110.45000000000002

>  <JCHEM_REFRACTIVITY>  (1) 
92.16470000000001

>  <JCHEM_ROTATABLE_BOND_COUNT>  (1) 
6

>  <JCHEM_RULE_OF_FIVE>  (1) 
1

>  <JCHEM_TRADITIONAL_IUPAC>  (1) 
nifedipine

>  <JCHEM_VEBER_RULE>  (1) 
0

>  <MOLECULAR_WEIGHT>  (1) 
346.3346

>  <PRODUCTS>  (1) 
Adalat; Adalat - Cap 10mg; Adalat CC; Adalat Cap 10mg; Adalat Cap 5mg; Adalat Oros; Adalat P.A.10 -srt 10mg; Adalat P.A.20 -srt 20mg; Adalat Pa 10 Tab 10mg; Adalat Pa 20; Adalat XL - Srt 20mg; Adalat XL - Srt 30mg; Adalat XL - Srt 60mg; Adalat XL Plus; Adalat XL Tab 30mg; Adalat XL Tab 60mg; Afeditab CR; Apo-nifed Pa; Dom-nifedipine; Gen Nifedipine Cap 10mg USP; Mylan-nifedipine Extended Release; Nifediac CC; Nifedical XL; NifedicalXL XL; Nifedipine; Nifedipine 10mg - Cap; Nifedipine 5mg - Cap; Nifedipine Capsules 10mg; Nifedipine ER; Nifedipine Extended Release; Nifedipine Extended-Release; Nifedipine Pa -10 - Srt 10mg; Nifedipine Pa 10 - Srt 10mg; Nifedipine Pa 20 - Srt 20mg; Nifedipine Pa-20 - Srt 20mg; Nifedipine-10 Cap 10mg; Novo-nifedin Cap 10mg; Novo-nifedin Cap 5mg; Novo-nifedin XL; Nu-nifed Cap 10mg; Nu-nifedipine-PA; Nu-nifedipine-PA - Prolonged Action Tab; PMS-nifedipine; PMS-nifedipine ER; Procardia; Procardia XL; Taro-nifedipine Cap 10mg

>  <SECONDARY_ACCESSION_NUMBERS>  (1) 
APRD00590

>  <SMILES>  (1) 
COC(=O)C1=C(C)NC(C)=C(C1C1=CC=CC=C1[N+]([O-])=O)C(=O)OC

$$$$
