1195
     RDKit          2D

 48 49  0  0  1  0  0  0  0  0999 V2000
    1.9520   -0.7697    0.0000 F   0  0  0  0  0  0  0  0  0  0  0  0
    1.6500    0.3572    0.0000 F   0  0  0  0  0  0  0  0  0  0  0  0
    2.7770    0.6592    0.0000 F   0  0  0  0  0  0  0  0  0  0  0  0
    8.0804   -3.3553    0.0000 F   0  0  0  0  0  0  0  0  0  0  0  0
    6.9534   -3.6573    0.0000 F   0  0  0  0  0  0  0  0  0  0  0  0
    7.7784   -2.2284    0.0000 F   0  0  0  0  0  0  0  0  0  0  0  0
    4.5080    1.1823    0.0000 O   0  0  0  0  0  0  0  0  0  0  0  0
    3.7935   -0.0553    0.0000 O   0  0  0  0  0  0  0  0  0  0  0  0
    6.6515   -1.7053    0.0000 O   0  0  0  0  0  0  0  0  0  0  0  0
    6.6515    3.2448    0.0000 N   0  0  0  0  0  0  0  0  0  0  0  0
    5.9370    1.1823    0.0000 N   0  0  0  0  0  0  0  0  0  0  0  0
    6.6515    2.4198    0.0000 C   0  0  0  0  0  0  0  0  0  0  0  0
    7.3659    2.0073    0.0000 C   0  0  0  0  0  0  0  0  0  0  0  0
    8.0804    2.4198    0.0000 C   0  0  0  0  0  0  0  0  0  0  0  0
    8.0804    3.2448    0.0000 C   0  0  0  0  0  0  0  0  0  0  0  0
    7.3659    3.6573    0.0000 C   0  0  0  0  0  0  0  0  0  0  0  0
    5.9370    2.0073    0.0000 C   0  0  0  0  0  0  0  0  0  0  0  0
    5.2224    0.7697    0.0000 C   0  0  0  0  0  0  0  0  0  0  0  0
    5.2224   -0.0553    0.0000 C   0  0  0  0  0  0  0  0  0  0  0  0
    4.5080   -0.4678    0.0000 C   0  0  0  0  0  0  0  0  0  0  0  0
    5.9370   -0.4678    0.0000 C   0  0  0  0  0  0  0  0  0  0  0  0
    5.9370   -1.2928    0.0000 C   0  0  0  0  0  0  0  0  0  0  0  0
    4.5080   -1.2928    0.0000 C   0  0  0  0  0  0  0  0  0  0  0  0
    5.2224   -1.7053    0.0000 C   0  0  0  0  0  0  0  0  0  0  0  0
    3.0791   -0.4678    0.0000 C   0  0  0  0  0  0  0  0  0  0  0  0
    6.6515   -2.5303    0.0000 C   0  0  0  0  0  0  0  0  0  0  0  0
    2.3645   -0.0553    0.0000 C   0  0  0  0  0  0  0  0  0  0  0  0
    7.3659   -2.9428    0.0000 C   0  0  0  0  0  0  0  0  0  0  0  0
    0.0000    0.0000    0.0000 H   0  0  0  0  0  0  0  0  0  0  0  0
    0.0000    0.0000    0.0000 H   0  0  0  0  0  0  0  0  0  0  0  0
    0.0000    0.0000    0.0000 H   0  0  0  0  0  0  0  0  0  0  0  0
    0.0000    0.0000    0.0000 H   0  0  0  0  0  0  0  0  0  0  0  0
    0.0000    0.0000    0.0000 H   0  0  0  0  0  0  0  0  0  0  0  0
    0.0000    0.0000    0.0000 H   0  0  0  0  0  0  0  0  0  0  0  0
    0.0000    0.0000    0.0000 H   0  0  0  0  0  0  0  0  0  0  0  0
    0.0000    0.0000    0.0000 H   0  0  0  0  0  0  0  0  0  0  0  0
    0.0000    0.0000    0.0000 H   0  0  0  0  0  0  0  0  0  0  0  0
    0.0000    0.0000    0.0000 H   0  0  0  0  0  0  0  0  0  0  0  0
    0.0000    0.0000    0.0000 H   0  0  0  0  0  0  0  0  0  0  0  0
    0.0000    0.0000    0.0000 H   0  0  0  0  0  0  0  0  0  0  0  0
    0.0000    0.0000    0.0000 H   0  0  0  0  0  0  0  0  0  0  0  0
    0.0000    0.0000    0.0000 H   0  0  0  0  0  0  0  0  0  0  0  0
    0.0000    0.0000    0.0000 H   0  0  0  0  0  0  0  0  0  0  0  0
    0.0000    0.0000    0.0000 H   0  0  0  0  0  0  0  0  0  0  0  0
    0.0000    0.0000    0.0000 H   0  0  0  0  0  0  0  0  0  0  0  0
    0.0000    0.0000    0.0000 H   0  0  0  0  0  0  0  0  0  0  0  0
    0.0000    0.0000    0.0000 H   0  0  0  0  0  0  0  0  0  0  0  0
    0.0000    0.0000    0.0000 H   0  0  0  0  0  0  0  0  0  0  0  0
  1 27  1  0
  2 27  1  0
  3 27  1  0
  4 28  1  0
  5 28  1  0
  6 28  1  0
  7 18  2  0
  8 20  1  0
  8 25  1  0
  9 22  1  0
  9 26  1  0
 10 12  1  0
 10 16  1  0
 11 17  1  0
 11 18  1  0
 12 13  1  0
 12 17  1  0
 13 14  1  0
 14 15  1  0
 15 16  1  0
 18 19  1  0
 19 20  2  0
 19 21  1  0
 20 23  1  0
 21 22  2  0
 22 24  1  0
 23 24  2  0
 25 27  1  0
 26 28  1  0
 10 29  1  0
 11 30  1  0
 12 31  1  0
 13 32  1  0
 13 33  1  0
 14 34  1  0
 14 35  1  0
 15 36  1  0
 15 37  1  0
 16 38  1  0
 16 39  1  0
 17 40  1  0
 17 41  1  0
 21 42  1  0
 23 43  1  0
 24 44  1  0
 25 45  1  0
 25 46  1  0
 26 47  1  0
 26 48  1  0
M  END
>  <ALOGPS_LOGP>  (1) 
2.98

>  <ALOGPS_LOGS>  (1) 
-4.11

>  <ALOGPS_SOLUBILITY>  (1) 
3.24e-02 g/l

>  <DATABASE_ID>  (1) 
DB01195

>  <DATABASE_NAME>  (1) 
drugbank

>  <DRUGBANK_ID>  (1) 
DB01195

>  <DRUG_GROUPS>  (1) 
approved; withdrawn

>  <EXACT_MASS>  (1) 
414.137811746

>  <FORMULA>  (1) 
C17H20F6N2O3

>  <GENERIC_NAME>  (1) 
Flecainide

>  <INCHI_IDENTIFIER>  (1) 
InChI=1S/C17H20F6N2O3/c18-16(19,20)9-27-12-4-5-14(28-10-17(21,22)23)13(7-12)15(26)25-8-11-3-1-2-6-24-11/h4-5,7,11,24H,1-3,6,8-10H2,(H,25,26)

>  <INCHI_KEY>  (1) 
DJBNUMBKLMJRSA-UHFFFAOYSA-N

>  <INTERNATIONAL_BRANDS>  (1) 
Almarytm; Apocard

>  <JCHEM_ACCEPTOR_COUNT>  (1) 
4

>  <JCHEM_AVERAGE_POLARIZABILITY>  (1) 
35.91568083566059

>  <JCHEM_BIOAVAILABILITY>  (1) 
1

>  <JCHEM_DONOR_COUNT>  (1) 
2

>  <JCHEM_FORMAL_CHARGE>  (1) 
0

>  <JCHEM_GHOSE_FILTER>  (1) 
1

>  <JCHEM_IUPAC>  (1) 
N-(piperidin-2-ylmethyl)-2,5-bis(2,2,2-trifluoroethoxy)benzamide

>  <JCHEM_LOGP>  (1) 
3.1881419053333335

>  <JCHEM_MDDR_LIKE_RULE>  (1) 
0

>  <JCHEM_NUMBER_OF_RINGS>  (1) 
2

>  <JCHEM_PHYSIOLOGICAL_CHARGE>  (1) 
1

>  <JCHEM_PKA>  (1) 
19.557778400329568

>  <JCHEM_PKA_STRONGEST_ACIDIC>  (1) 
13.681351736903963

>  <JCHEM_PKA_STRONGEST_BASIC>  (1) 
9.616620255251357

>  <JCHEM_POLAR_SURFACE_AREA>  (1) 
59.59

>  <JCHEM_REFRACTIVITY>  (1) 
88.39630000000001

>  <JCHEM_ROTATABLE_BOND_COUNT>  (1) 
9

>  <JCHEM_RULE_OF_FIVE>  (1) 
1

>  <JCHEM_TRADITIONAL_IUPAC>  (1) 
flecainide

>  <JCHEM_VEBER_RULE>  (1) 
0

>  <MOLECULAR_WEIGHT>  (1) 
414.3427

>  <PRODUCTS>  (1) 
Apo-flecainide; Auro-flecainide; Flecainide Acetate; Flecainide acetate; Tambocor

>  <SALTS>  (1) 
Flecainide acetate

>  <SECONDARY_ACCESSION_NUMBERS>  (1) 
APRD00129

>  <SMILES>  (1) 
FC(F)(F)COC1=CC(C(=O)NCC2CCCCN2)=C(OCC(F)(F)F)C=C1

>  <SYNONYMS>  (1) 
Flecainida; Flecainidum

$$$$
