1253
     RDKit          2D

 47 50  0  0  1  0  0  0  0  0999 V2000
    2.3776    0.2215    0.0000 O   0  0  0  0  0  0  0  0  0  0  0  0
    1.6520    3.1062    0.0000 O   0  0  0  0  0  0  0  0  0  0  0  0
    5.2917    0.2213    0.0000 N   0  0  0  0  0  0  0  0  0  0  0  0
    6.2666   -3.1748    0.0000 N   0  0  0  0  0  0  0  0  0  0  0  0
    3.0872    1.4617    0.0000 N   0  0  0  0  0  0  0  0  0  0  0  0
    5.2784   -0.6380    0.0000 C   0  0  0  0  0  0  0  0  0  0  0  0
    4.5639   -1.0505    0.0000 C   0  0  0  0  0  0  0  0  0  0  0  0
    5.9928   -1.0505    0.0000 C   0  0  0  0  0  0  0  0  0  0  0  0
    3.8065    0.2270    0.0000 C   0  0  0  0  0  0  0  0  0  0  0  0
    4.5507    0.6567    0.0000 C   0  0  0  0  0  0  0  0  0  0  0  0
    5.9928   -1.8755    0.0000 C   0  0  0  0  0  0  0  0  0  0  0  0
    4.5639   -1.8755    0.0000 C   0  0  0  0  0  0  0  0  0  0  0  0
    5.2784   -2.2880    0.0000 C   0  0  0  0  0  0  0  0  0  0  0  0
    3.8132   -0.6324    0.0000 C   0  0  0  0  0  0  0  0  0  0  0  0
    5.2917   -3.1472    0.0000 C   0  0  0  0  0  0  0  0  0  0  0  0
    6.0108    0.6255    0.0000 C   0  0  0  0  0  0  0  0  0  0  0  0
    6.6009   -2.4258    0.0000 C   0  0  0  0  0  0  0  0  0  0  0  0
    3.0905    0.6367    0.0000 C   0  0  0  0  0  0  0  0  0  0  0  0
    3.8132   -2.2936    0.0000 C   0  0  0  0  0  0  0  0  0  0  0  0
    4.5507   -3.5827    0.0000 C   0  0  0  0  0  0  0  0  0  0  0  0
    3.8065   -3.1529    0.0000 C   0  0  0  0  0  0  0  0  0  0  0  0
    2.3712    1.8715    0.0000 C   0  0  0  0  0  0  0  0  0  0  0  0
    2.3680    2.6965    0.0000 C   0  0  0  0  0  0  0  0  0  0  0  0
    1.6583    1.4562    0.0000 C   0  0  0  0  0  0  0  0  0  0  0  0
    0.0000    0.0000    0.0000 H   0  0  0  0  0  0  0  0  0  0  0  0
    0.0000    0.0000    0.0000 H   0  0  0  0  0  0  0  0  0  0  0  0
    0.0000    0.0000    0.0000 H   0  0  0  0  0  0  0  0  0  0  0  0
    0.0000    0.0000    0.0000 H   0  0  0  0  0  0  0  0  0  0  0  0
    0.0000    0.0000    0.0000 H   0  0  0  0  0  0  0  0  0  0  0  0
    0.0000    0.0000    0.0000 H   0  0  0  0  0  0  0  0  0  0  0  0
    0.0000    0.0000    0.0000 H   0  0  0  0  0  0  0  0  0  0  0  0
    0.0000    0.0000    0.0000 H   0  0  0  0  0  0  0  0  0  0  0  0
    0.0000    0.0000    0.0000 H   0  0  0  0  0  0  0  0  0  0  0  0
    0.0000    0.0000    0.0000 H   0  0  0  0  0  0  0  0  0  0  0  0
    0.0000    0.0000    0.0000 H   0  0  0  0  0  0  0  0  0  0  0  0
    0.0000    0.0000    0.0000 H   0  0  0  0  0  0  0  0  0  0  0  0
    0.0000    0.0000    0.0000 H   0  0  0  0  0  0  0  0  0  0  0  0
    0.0000    0.0000    0.0000 H   0  0  0  0  0  0  0  0  0  0  0  0
    0.0000    0.0000    0.0000 H   0  0  0  0  0  0  0  0  0  0  0  0
    0.0000    0.0000    0.0000 H   0  0  0  0  0  0  0  0  0  0  0  0
    0.0000    0.0000    0.0000 H   0  0  0  0  0  0  0  0  0  0  0  0
    0.0000    0.0000    0.0000 H   0  0  0  0  0  0  0  0  0  0  0  0
    0.0000    0.0000    0.0000 H   0  0  0  0  0  0  0  0  0  0  0  0
    0.0000    0.0000    0.0000 H   0  0  0  0  0  0  0  0  0  0  0  0
    0.0000    0.0000    0.0000 H   0  0  0  0  0  0  0  0  0  0  0  0
    0.0000    0.0000    0.0000 H   0  0  0  0  0  0  0  0  0  0  0  0
    0.0000    0.0000    0.0000 H   0  0  0  0  0  0  0  0  0  0  0  0
  1 18  2  0
  2 23  1  0
  3  6  1  0
  3 10  1  0
  3 16  1  0
  4 15  1  0
  4 17  1  0
  5 18  1  0
 22  5  1  1
  6  7  1  0
  6  8  1  0
  7 12  1  0
  7 14  2  0
  8 11  1  0
  9 10  1  0
  9 14  1  0
  9 18  1  1
 11 13  1  0
 11 17  2  0
 12 13  2  0
 12 19  1  0
 13 15  1  0
 15 20  2  0
 19 21  2  0
 20 21  1  0
 22 23  1  0
 22 24  1  0
  2 25  1  0
  4 26  1  0
  5 27  1  0
  6 28  1  1
  8 29  1  0
  8 30  1  0
  9 31  1  0
 10 32  1  0
 10 33  1  0
 14 34  1  0
 16 35  1  0
 16 36  1  0
 16 37  1  0
 17 38  1  0
 19 39  1  0
 20 40  1  0
 21 41  1  0
 22 42  1  0
 23 43  1  0
 23 44  1  0
 24 45  1  0
 24 46  1  0
 24 47  1  0
M  END
>  <ALOGPS_LOGP>  (1) 
1.53

>  <ALOGPS_LOGS>  (1) 
-3.01

>  <ALOGPS_SOLUBILITY>  (1) 
3.21e-01 g/l

>  <DATABASE_ID>  (1) 
DB01253

>  <DATABASE_NAME>  (1) 
drugbank

>  <DRUGBANK_ID>  (1) 
DB01253

>  <DRUG_GROUPS>  (1) 
approved

>  <EXACT_MASS>  (1) 
325.179026995

>  <FORMULA>  (1) 
C19H23N3O2

>  <GENERIC_NAME>  (1) 
Ergonovine

>  <INCHI_IDENTIFIER>  (1) 
InChI=1S/C19H23N3O2/c1-11(10-23)21-19(24)13-6-15-14-4-3-5-16-18(14)12(8-20-16)7-17(15)22(2)9-13/h3-6,8,11,13,17,20,23H,7,9-10H2,1-2H3,(H,21,24)/t11-,13+,17+/m0/s1

>  <INCHI_KEY>  (1) 
WVVSZNPYNCNODU-XTQGRXLLSA-N

>  <JCHEM_ACCEPTOR_COUNT>  (1) 
3

>  <JCHEM_AVERAGE_POLARIZABILITY>  (1) 
36.53515172912834

>  <JCHEM_BIOAVAILABILITY>  (1) 
1

>  <JCHEM_DONOR_COUNT>  (1) 
3

>  <JCHEM_FORMAL_CHARGE>  (1) 
0

>  <JCHEM_GHOSE_FILTER>  (1) 
1

>  <JCHEM_IUPAC>  (1) 
(4R,7R)-N-[(2S)-1-hydroxypropan-2-yl]-6-methyl-6,11-diazatetracyclo[7.6.1.0²,⁷.0¹²,¹⁶]hexadeca-1(16),2,9,12,14-pentaene-4-carboxamide

>  <JCHEM_LOGP>  (1) 
1.0706959856666662

>  <JCHEM_MDDR_LIKE_RULE>  (1) 
0

>  <JCHEM_NUMBER_OF_RINGS>  (1) 
4

>  <JCHEM_PHYSIOLOGICAL_CHARGE>  (1) 
1

>  <JCHEM_PKA>  (1) 
15.936197047508507

>  <JCHEM_PKA_STRONGEST_ACIDIC>  (1) 
14.998553275855407

>  <JCHEM_PKA_STRONGEST_BASIC>  (1) 
7.9273088332375305

>  <JCHEM_POLAR_SURFACE_AREA>  (1) 
68.36

>  <JCHEM_REFRACTIVITY>  (1) 
95.05190000000002

>  <JCHEM_ROTATABLE_BOND_COUNT>  (1) 
3

>  <JCHEM_RULE_OF_FIVE>  (1) 
1

>  <JCHEM_TRADITIONAL_IUPAC>  (1) 
ergonovine

>  <JCHEM_VEBER_RULE>  (1) 
0

>  <MOLECULAR_WEIGHT>  (1) 
325.4048

>  <PRODUCTS>  (1) 
Ergonovine Maleate Injection; Ergonovine Maleate Injection USP, 0.25mg/ml; Ergotrate Maleate Tablet 1572 0.2mg

>  <SALTS>  (1) 
Ergonovine maleate

>  <SMILES>  (1) 
[H][C@@]12CC3=CNC4=CC=CC(=C34)C1=C[C@H](CN2C)C(=O)N[C@@H](C)CO

>  <SYNONYMS>  (1) 
(6aR,9R)-7-Methyl-4,6,6a,7,8,9-hexahydro-indolo[4,3-fg]quinoline-9-carboxylic acid ((S)-2-hydroxy-1-methyl-ethyl)-amide; [8β(S)]-9,10-didehydro-N-(2-hydroxy-1-methylethyl)-6-methylergoline-8-carboxamide; 9,10-didehydro-N-(2-hydroxy-1-methylethyl)-6-methylergoline-8β(S)-carboxamide; 9,10-didehydro-N-(α-(hydroxymethyl)ethyl)-6-methylergoline-8-β-carboxamide; D-lysergic acid 1-hydroxymethylethylamide; D-lysergic acid-L-propanolamide; Ergobasine; Ergometrina; Ergometrine; Ergométrine; Ergometrinum; Ergonovine; Ergotocine; Margonovine; N-(2-Hydroxy-1-methylethyl)-D-(+)-lysergamide; N-(α-(hydroxymethyl)ethyl)-D-lysergamide

$$$$
