1420
     RDKit          2D

 57 60  0  0  1  0  0  0  0  0999 V2000
    7.1363    1.2335    0.0000 O   0  0  0  0  0  0  0  0  0  0  0  0
    1.6500   -2.3202    0.0000 O   0  0  0  0  0  0  0  0  0  0  0  0
    8.4945    0.7896    0.0000 O   0  0  0  0  0  0  0  0  0  0  0  0
    6.0993   -0.6270    0.0000 C   0  0  0  0  0  0  0  0  0  0  0  0
    6.0993    0.1980    0.0000 C   0  0  0  0  0  0  0  0  0  0  0  0
    5.3849   -1.0395    0.0000 C   0  0  0  0  0  0  0  0  0  0  0  0
    4.6703   -0.6270    0.0000 C   0  0  0  0  0  0  0  0  0  0  0  0
    3.9196   -1.0452    0.0000 C   0  0  0  0  0  0  0  0  0  0  0  0
    5.3849    0.6105    0.0000 C   0  0  0  0  0  0  0  0  0  0  0  0
    4.6703    0.1980    0.0000 C   0  0  0  0  0  0  0  0  0  0  0  0
    6.8799    0.4494    0.0000 C   0  0  0  0  0  0  0  0  0  0  0  0
    6.8799   -0.8785    0.0000 C   0  0  0  0  0  0  0  0  0  0  0  0
    5.3981   -1.8987    0.0000 C   0  0  0  0  0  0  0  0  0  0  0  0
    7.3614   -0.2145    0.0000 C   0  0  0  0  0  0  0  0  0  0  0  0
    3.9130   -1.9045    0.0000 C   0  0  0  0  0  0  0  0  0  0  0  0
    6.0993    1.0230    0.0000 C   0  0  0  0  0  0  0  0  0  0  0  0
    4.6572   -2.3342    0.0000 C   0  0  0  0  0  0  0  0  0  0  0  0
    3.1550   -0.5798    0.0000 C   0  0  0  0  0  0  0  0  0  0  0  0
    3.9259   -0.2202    0.0000 C   0  0  0  0  0  0  0  0  0  0  0  0
    2.3730   -1.0153    0.0000 C   0  0  0  0  0  0  0  0  0  0  0  0
    3.1413   -2.3580    0.0000 C   0  0  0  0  0  0  0  0  0  0  0  0
    2.3660   -1.9105    0.0000 C   0  0  0  0  0  0  0  0  0  0  0  0
    7.9435    1.4037    0.0000 C   0  0  0  0  0  0  0  0  0  0  0  0
    8.1998    2.1879    0.0000 C   0  0  0  0  0  0  0  0  0  0  0  0
    9.0071    2.3580    0.0000 C   0  0  0  0  0  0  0  0  0  0  0  0
    0.0000    0.0000    0.0000 H   0  0  0  0  0  0  0  0  0  0  0  0
    0.0000    0.0000    0.0000 H   0  0  0  0  0  0  0  0  0  0  0  0
    0.0000    0.0000    0.0000 H   0  0  0  0  0  0  0  0  0  0  0  0
    0.0000    0.0000    0.0000 H   0  0  0  0  0  0  0  0  0  0  0  0
    0.0000    0.0000    0.0000 H   0  0  0  0  0  0  0  0  0  0  0  0
    0.0000    0.0000    0.0000 H   0  0  0  0  0  0  0  0  0  0  0  0
    0.0000    0.0000    0.0000 H   0  0  0  0  0  0  0  0  0  0  0  0
    0.0000    0.0000    0.0000 H   0  0  0  0  0  0  0  0  0  0  0  0
    0.0000    0.0000    0.0000 H   0  0  0  0  0  0  0  0  0  0  0  0
    0.0000    0.0000    0.0000 H   0  0  0  0  0  0  0  0  0  0  0  0
    0.0000    0.0000    0.0000 H   0  0  0  0  0  0  0  0  0  0  0  0
    0.0000    0.0000    0.0000 H   0  0  0  0  0  0  0  0  0  0  0  0
    0.0000    0.0000    0.0000 H   0  0  0  0  0  0  0  0  0  0  0  0
    0.0000    0.0000    0.0000 H   0  0  0  0  0  0  0  0  0  0  0  0
    0.0000    0.0000    0.0000 H   0  0  0  0  0  0  0  0  0  0  0  0
    0.0000    0.0000    0.0000 H   0  0  0  0  0  0  0  0  0  0  0  0
    0.0000    0.0000    0.0000 H   0  0  0  0  0  0  0  0  0  0  0  0
    0.0000    0.0000    0.0000 H   0  0  0  0  0  0  0  0  0  0  0  0
    0.0000    0.0000    0.0000 H   0  0  0  0  0  0  0  0  0  0  0  0
    0.0000    0.0000    0.0000 H   0  0  0  0  0  0  0  0  0  0  0  0
    0.0000    0.0000    0.0000 H   0  0  0  0  0  0  0  0  0  0  0  0
    0.0000    0.0000    0.0000 H   0  0  0  0  0  0  0  0  0  0  0  0
    0.0000    0.0000    0.0000 H   0  0  0  0  0  0  0  0  0  0  0  0
    0.0000    0.0000    0.0000 H   0  0  0  0  0  0  0  0  0  0  0  0
    0.0000    0.0000    0.0000 H   0  0  0  0  0  0  0  0  0  0  0  0
    0.0000    0.0000    0.0000 H   0  0  0  0  0  0  0  0  0  0  0  0
    0.0000    0.0000    0.0000 H   0  0  0  0  0  0  0  0  0  0  0  0
    0.0000    0.0000    0.0000 H   0  0  0  0  0  0  0  0  0  0  0  0
    0.0000    0.0000    0.0000 H   0  0  0  0  0  0  0  0  0  0  0  0
    0.0000    0.0000    0.0000 H   0  0  0  0  0  0  0  0  0  0  0  0
    0.0000    0.0000    0.0000 H   0  0  0  0  0  0  0  0  0  0  0  0
    0.0000    0.0000    0.0000 H   0  0  0  0  0  0  0  0  0  0  0  0
 11  1  1  1
  1 23  1  0
  2 22  2  0
  3 23  2  0
  4  5  1  0
  4  6  1  0
  4 12  1  0
  5  9  1  0
  5 11  1  0
  5 16  1  1
  6  7  1  0
  6 13  1  0
  7  8  1  0
  7 10  1  0
  8 15  1  0
  8 18  1  0
  8 19  1  1
  9 10  1  0
 11 14  1  0
 12 14  1  0
 13 17  1  0
 15 17  1  0
 15 21  2  0
 18 20  1  0
 20 22  1  0
 21 22  1  0
 23 24  1  0
 24 25  1  0
  4 26  1  6
  6 27  1  1
  7 28  1  6
  9 29  1  0
  9 30  1  0
 10 31  1  0
 10 32  1  0
 11 33  1  0
 12 34  1  0
 12 35  1  0
 13 36  1  0
 13 37  1  0
 14 38  1  0
 14 39  1  0
 16 40  1  0
 16 41  1  0
 16 42  1  0
 17 43  1  0
 17 44  1  0
 18 45  1  0
 18 46  1  0
 19 47  1  0
 19 48  1  0
 19 49  1  0
 20 50  1  0
 20 51  1  0
 21 52  1  0
 24 53  1  0
 24 54  1  0
 25 55  1  0
 25 56  1  0
 25 57  1  0
M  END
>  <ALOGPS_LOGP>  (1) 
3.65

>  <ALOGPS_LOGS>  (1) 
-4.84

>  <ALOGPS_SOLUBILITY>  (1) 
5.02e-03 g/l

>  <DATABASE_ID>  (1) 
DB01420

>  <DATABASE_NAME>  (1) 
drugbank

>  <DRUGBANK_ID>  (1) 
DB01420

>  <DRUG_GROUPS>  (1) 
approved; vet_approved

>  <EXACT_MASS>  (1) 
344.23514489

>  <FORMULA>  (1) 
C22H32O3

>  <GENERIC_NAME>  (1) 
Testosterone Propionate

>  <INCHI_IDENTIFIER>  (1) 
InChI=1S/C22H32O3/c1-4-20(24)25-19-8-7-17-16-6-5-14-13-15(23)9-11-21(14,2)18(16)10-12-22(17,19)3/h13,16-19H,4-12H2,1-3H3/t16-,17-,18-,19-,21-,22-/m0/s1

>  <INCHI_KEY>  (1) 
PDMMFKSKQVNJMI-BLQWBTBKSA-N

>  <JCHEM_ACCEPTOR_COUNT>  (1) 
2

>  <JCHEM_AVERAGE_POLARIZABILITY>  (1) 
40.43215909103325

>  <JCHEM_BIOAVAILABILITY>  (1) 
1

>  <JCHEM_DONOR_COUNT>  (1) 
0

>  <JCHEM_FORMAL_CHARGE>  (1) 
0

>  <JCHEM_GHOSE_FILTER>  (1) 
1

>  <JCHEM_IUPAC>  (1) 
(1S,2R,10R,11S,14S,15S)-2,15-dimethyl-5-oxotetracyclo[8.7.0.0²,⁷.0¹¹,¹⁵]heptadec-6-en-14-yl propanoate

>  <JCHEM_LOGP>  (1) 
4.507084555000001

>  <JCHEM_MDDR_LIKE_RULE>  (1) 
0

>  <JCHEM_NUMBER_OF_RINGS>  (1) 
4

>  <JCHEM_PHYSIOLOGICAL_CHARGE>  (1) 
0

>  <JCHEM_PKA_STRONGEST_ACIDIC>  (1) 
19.086854770611403

>  <JCHEM_PKA_STRONGEST_BASIC>  (1) 
-4.814844779925626

>  <JCHEM_POLAR_SURFACE_AREA>  (1) 
43.370000000000005

>  <JCHEM_REFRACTIVITY>  (1) 
98.20819999999998

>  <JCHEM_ROTATABLE_BOND_COUNT>  (1) 
3

>  <JCHEM_RULE_OF_FIVE>  (1) 
1

>  <JCHEM_TRADITIONAL_IUPAC>  (1) 
androgen

>  <JCHEM_VEBER_RULE>  (1) 
0

>  <MOLECULAR_WEIGHT>  (1) 
344.4877

>  <PRODUCTS>  (1) 
Malogen In Oil Liq 100mg/ml; Testosterone Propionate Inj 100mg/ml; Testosterone Propionate Injection, USP

>  <SMILES>  (1) 
[H][C@@]12CC[C@H](OC(=O)CC)[C@@]1(C)CC[C@@]1([H])[C@@]2([H])CCC2=CC(=O)CC[C@]12C

$$$$
