1558
     RDKit          2D

 29 31  0  0  0  0  0  0  0  0999 V2000
    2.5467   -2.3593    0.0000 Br  0  0  0  0  0  0  0  0  0  0  0  0
    2.3403    2.3593    0.0000 O   0  0  0  0  0  0  0  0  0  0  0  0
    2.1839    0.9709    0.0000 N   0  0  0  0  0  0  0  0  0  0  0  0
    4.0375    0.9709    0.0000 N   0  0  0  0  0  0  0  0  0  0  0  0
    5.2670   -0.0464    0.0000 N   0  0  0  0  0  0  0  0  0  0  0  0
    3.1107   -0.1914    0.0000 C   0  0  0  0  0  0  0  0  0  0  0  0
    2.3674    0.1666    0.0000 C   0  0  0  0  0  0  0  0  0  0  0  0
    3.8540    0.1666    0.0000 C   0  0  0  0  0  0  0  0  0  0  0  0
    3.1881   -1.0473    0.0000 C   0  0  0  0  0  0  0  0  0  0  0  0
    3.5232    1.6159    0.0000 C   0  0  0  0  0  0  0  0  0  0  0  0
    4.4990   -0.3478    0.0000 C   0  0  0  0  0  0  0  0  0  0  0  0
    1.6500   -0.3065    0.0000 C   0  0  0  0  0  0  0  0  0  0  0  0
    2.6982    1.6159    0.0000 C   0  0  0  0  0  0  0  0  0  0  0  0
    2.4818   -1.5367    0.0000 C   0  0  0  0  0  0  0  0  0  0  0  0
    1.7076   -1.1639    0.0000 C   0  0  0  0  0  0  0  0  0  0  0  0
    4.3760   -1.1636    0.0000 C   0  0  0  0  0  0  0  0  0  0  0  0
    5.0210   -1.6780    0.0000 C   0  0  0  0  0  0  0  0  0  0  0  0
    5.9120   -0.5608    0.0000 C   0  0  0  0  0  0  0  0  0  0  0  0
    5.7890   -1.3765    0.0000 C   0  0  0  0  0  0  0  0  0  0  0  0
    0.0000    0.0000    0.0000 H   0  0  0  0  0  0  0  0  0  0  0  0
    0.0000    0.0000    0.0000 H   0  0  0  0  0  0  0  0  0  0  0  0
    0.0000    0.0000    0.0000 H   0  0  0  0  0  0  0  0  0  0  0  0
    0.0000    0.0000    0.0000 H   0  0  0  0  0  0  0  0  0  0  0  0
    0.0000    0.0000    0.0000 H   0  0  0  0  0  0  0  0  0  0  0  0
    0.0000    0.0000    0.0000 H   0  0  0  0  0  0  0  0  0  0  0  0
    0.0000    0.0000    0.0000 H   0  0  0  0  0  0  0  0  0  0  0  0
    0.0000    0.0000    0.0000 H   0  0  0  0  0  0  0  0  0  0  0  0
    0.0000    0.0000    0.0000 H   0  0  0  0  0  0  0  0  0  0  0  0
    0.0000    0.0000    0.0000 H   0  0  0  0  0  0  0  0  0  0  0  0
  1 14  1  0
  2 13  2  0
  3  7  1  0
  3 13  1  0
  4  8  2  0
  4 10  1  0
  5 11  2  0
  5 18  1  0
  6  7  2  0
  6  8  1  0
  6  9  1  0
  7 12  1  0
  8 11  1  0
  9 14  2  0
 10 13  1  0
 11 16  1  0
 12 15  2  0
 14 15  1  0
 16 17  2  0
 17 19  1  0
 18 19  2  0
  3 20  1  0
  9 21  1  0
 10 22  1  0
 10 23  1  0
 12 24  1  0
 15 25  1  0
 16 26  1  0
 17 27  1  0
 18 28  1  0
 19 29  1  0
M  END
>  <ALOGPS_LOGP>  (1) 
2.09

>  <ALOGPS_LOGS>  (1) 
-3.90

>  <ALOGPS_SOLUBILITY>  (1) 
3.99e-02 g/l

>  <DATABASE_ID>  (1) 
DB01558

>  <DATABASE_NAME>  (1) 
drugbank

>  <DRUGBANK_ID>  (1) 
DB01558

>  <DRUG_GROUPS>  (1) 
approved; illicit

>  <EXACT_MASS>  (1) 
315.000724604

>  <FORMULA>  (1) 
C14H10BrN3O

>  <GENERIC_NAME>  (1) 
Bromazepam

>  <INCHI_IDENTIFIER>  (1) 
InChI=1S/C14H10BrN3O/c15-9-4-5-11-10(7-9)14(17-8-13(19)18-11)12-3-1-2-6-16-12/h1-7H,8H2,(H,18,19)

>  <INCHI_KEY>  (1) 
VMIYHDSEFNYJSL-UHFFFAOYSA-N

>  <INTERNATIONAL_BRANDS>  (1) 
Calmepam; Creosedin; Lectopam; Lekotam; Lexaurin; Lexilium; Lexotan; Normoc; Ultramidol

>  <JCHEM_ACCEPTOR_COUNT>  (1) 
3

>  <JCHEM_AVERAGE_POLARIZABILITY>  (1) 
28.10544719289046

>  <JCHEM_BIOAVAILABILITY>  (1) 
1

>  <JCHEM_DONOR_COUNT>  (1) 
1

>  <JCHEM_FORMAL_CHARGE>  (1) 
0

>  <JCHEM_GHOSE_FILTER>  (1) 
1

>  <JCHEM_IUPAC>  (1) 
7-bromo-5-(pyridin-2-yl)-2,3-dihydro-1H-1,4-benzodiazepin-2-one

>  <JCHEM_LOGP>  (1) 
2.5449063463333332

>  <JCHEM_MDDR_LIKE_RULE>  (1) 
0

>  <JCHEM_NUMBER_OF_RINGS>  (1) 
3

>  <JCHEM_PHYSIOLOGICAL_CHARGE>  (1) 
0

>  <JCHEM_PKA_STRONGEST_ACIDIC>  (1) 
12.238633643745393

>  <JCHEM_PKA_STRONGEST_BASIC>  (1) 
2.675365429288418

>  <JCHEM_POLAR_SURFACE_AREA>  (1) 
54.35

>  <JCHEM_REFRACTIVITY>  (1) 
76.98510000000002

>  <JCHEM_ROTATABLE_BOND_COUNT>  (1) 
1

>  <JCHEM_RULE_OF_FIVE>  (1) 
1

>  <JCHEM_TRADITIONAL_IUPAC>  (1) 
bromazepam

>  <JCHEM_VEBER_RULE>  (1) 
0

>  <MOLECULAR_WEIGHT>  (1) 
316.153

>  <PRODUCTS>  (1) 
Alti-bromazepam 1.5mg Tablets; Alti-bromazepam 3mg Tablets; Alti-bromazepam 6mg Tablets; Apo-bromazepam - Tab 1.5mg; Apo-bromazepam - Tab 3mg; Apo-bromazepam - Tab 6mg; Bromazepam-1.5 - Tab 1.5mg; Bromazepam-3 - Tab 3mg; Bromazepam-6 - Tab 6mg; Gen-bromazepam - Tab 3mg; Gen-bromazepam - Tab 6mg; Lectopam Tab 1.5mg; Lectopam Tab 3mg; Lectopam Tab 6mg; Mylan-bromazepam; Nu-bromazepam - Tab 1.5mg; Nu-bromazepam - Tab 3mg; Nu-bromazepam - Tab 6mg; Penta-bromazepam Tablets; Riva-bromazepam 3 mg; Riva-bromazepam 6 mg; Teva-bromazepam

>  <SMILES>  (1) 
BrC1=CC2=C(NC(=O)CN=C2C2=CC=CC=N2)C=C1

>  <SYNONYMS>  (1) 
Bromazepamum

$$$$
