1043
     RDKit          2D

 34 36  0  0  1  0  0  0  0  0999 V2000
    2.5024   -1.4994    0.0000 N   0  0  0  0  0  0  0  0  0  0  0  0
    3.0826    0.9204    0.0000 C   0  0  0  0  0  0  0  0  0  0  0  0
    2.3807   -0.2951    0.0000 C   0  0  0  0  0  0  0  0  0  0  0  0
    2.5025   -0.6602    0.0000 C   0  0  0  0  0  0  0  0  0  0  0  0
    3.7843   -0.2951    0.0000 C   0  0  0  0  0  0  0  0  0  0  0  0
    2.3807    0.5153    0.0000 C   0  0  0  0  0  0  0  0  0  0  0  0
    2.5025    0.2170    0.0000 C   0  0  0  0  0  0  0  0  0  0  0  0
    1.6785   -0.7003    0.0000 C   0  0  0  0  0  0  0  0  0  0  0  0
    3.7843    0.5153    0.0000 C   0  0  0  0  0  0  0  0  0  0  0  0
    3.0826   -0.5492    0.0000 C   0  0  0  0  0  0  0  0  0  0  0  0
    3.2626   -1.0604    0.0000 C   0  0  0  0  0  0  0  0  0  0  0  0
    3.0826    1.7596    0.0000 C   0  0  0  0  0  0  0  0  0  0  0  0
    1.7873    0.2983    0.0000 C   0  0  0  0  0  0  0  0  0  0  0  0
    0.0000    0.0000    0.0000 H   0  0  0  0  0  0  0  0  0  0  0  0
    0.0000    0.0000    0.0000 H   0  0  0  0  0  0  0  0  0  0  0  0
    0.0000    0.0000    0.0000 H   0  0  0  0  0  0  0  0  0  0  0  0
    0.0000    0.0000    0.0000 H   0  0  0  0  0  0  0  0  0  0  0  0
    0.0000    0.0000    0.0000 H   0  0  0  0  0  0  0  0  0  0  0  0
    0.0000    0.0000    0.0000 H   0  0  0  0  0  0  0  0  0  0  0  0
    0.0000    0.0000    0.0000 H   0  0  0  0  0  0  0  0  0  0  0  0
    0.0000    0.0000    0.0000 H   0  0  0  0  0  0  0  0  0  0  0  0
    0.0000    0.0000    0.0000 H   0  0  0  0  0  0  0  0  0  0  0  0
    0.0000    0.0000    0.0000 H   0  0  0  0  0  0  0  0  0  0  0  0
    0.0000    0.0000    0.0000 H   0  0  0  0  0  0  0  0  0  0  0  0
    0.0000    0.0000    0.0000 H   0  0  0  0  0  0  0  0  0  0  0  0
    0.0000    0.0000    0.0000 H   0  0  0  0  0  0  0  0  0  0  0  0
    0.0000    0.0000    0.0000 H   0  0  0  0  0  0  0  0  0  0  0  0
    0.0000    0.0000    0.0000 H   0  0  0  0  0  0  0  0  0  0  0  0
    0.0000    0.0000    0.0000 H   0  0  0  0  0  0  0  0  0  0  0  0
    0.0000    0.0000    0.0000 H   0  0  0  0  0  0  0  0  0  0  0  0
    0.0000    0.0000    0.0000 H   0  0  0  0  0  0  0  0  0  0  0  0
    0.0000    0.0000    0.0000 H   0  0  0  0  0  0  0  0  0  0  0  0
    0.0000    0.0000    0.0000 H   0  0  0  0  0  0  0  0  0  0  0  0
    0.0000    0.0000    0.0000 H   0  0  0  0  0  0  0  0  0  0  0  0
  1  4  1  0
  2  6  1  0
  2  7  1  0
  2  9  1  0
  2 12  1  0
  3  6  1  0
  3  8  1  0
  3 10  1  0
  3 13  1  0
  4  7  1  0
  4  8  1  0
  4 11  1  0
  5  9  1  0
  5 10  1  0
  5 11  1  0
  1 14  1  0
  1 15  1  0
  5 16  1  0
  6 17  1  0
  6 18  1  0
  7 19  1  0
  7 20  1  0
  8 21  1  0
  8 22  1  0
  9 23  1  0
  9 24  1  0
 10 25  1  0
 10 26  1  0
 11 27  1  0
 11 28  1  0
 12 29  1  0
 12 30  1  0
 12 31  1  0
 13 32  1  0
 13 33  1  0
 13 34  1  0
M  END
>  <ALOGPS_LOGP>  (1) 
3.31

>  <ALOGPS_LOGS>  (1) 
-3.60

>  <ALOGPS_SOLUBILITY>  (1) 
4.55e-02 g/l

>  <DATABASE_ID>  (1) 
DB01043

>  <DATABASE_NAME>  (1) 
drugbank

>  <DRUGBANK_ID>  (1) 
DB01043

>  <DRUG_GROUPS>  (1) 
approved; investigational

>  <EXACT_MASS>  (1) 
179.167399677

>  <FORMULA>  (1) 
C12H21N

>  <GENERIC_NAME>  (1) 
Memantine

>  <INCHI_IDENTIFIER>  (1) 
InChI=1S/C12H21N/c1-10-3-9-4-11(2,6-10)8-12(13,5-9)7-10/h9H,3-8,13H2,1-2H3

>  <INCHI_KEY>  (1) 
BUGYDGFZZOZRHP-UHFFFAOYSA-N

>  <INTERNATIONAL_BRANDS>  (1) 
Abixa; Akatinol; Axura; Memox

>  <JCHEM_ACCEPTOR_COUNT>  (1) 
1

>  <JCHEM_AVERAGE_POLARIZABILITY>  (1) 
21.82219397479082

>  <JCHEM_BIOAVAILABILITY>  (1) 
1

>  <JCHEM_DONOR_COUNT>  (1) 
1

>  <JCHEM_FORMAL_CHARGE>  (1) 
0

>  <JCHEM_GHOSE_FILTER>  (1) 
1

>  <JCHEM_IUPAC>  (1) 
3,5-dimethyladamantan-1-amine

>  <JCHEM_LOGP>  (1) 
2.066041788333333

>  <JCHEM_MDDR_LIKE_RULE>  (1) 
0

>  <JCHEM_NUMBER_OF_RINGS>  (1) 
3

>  <JCHEM_PHYSIOLOGICAL_CHARGE>  (1) 
1

>  <JCHEM_PKA_STRONGEST_BASIC>  (1) 
10.696071905405688

>  <JCHEM_POLAR_SURFACE_AREA>  (1) 
26.02

>  <JCHEM_REFRACTIVITY>  (1) 
54.4858

>  <JCHEM_ROTATABLE_BOND_COUNT>  (1) 
0

>  <JCHEM_RULE_OF_FIVE>  (1) 
1

>  <JCHEM_TRADITIONAL_IUPAC>  (1) 
memantine

>  <JCHEM_VEBER_RULE>  (1) 
1

>  <MOLECULAR_WEIGHT>  (1) 
179.3018

>  <PRODUCTS>  (1) 
Act Memantine; Apo-memantine; Axura; Ebixa; Marixino; Med-memantine; Memantine; Memantine Accord; Memantine Hydrochloride; Memantine Hydrochloride Tablets; Memantine Merz; Memantine Mylan; Memantine Ratiopharm; Memantine and Donepezil Hydrochlorides Extended-release; Memantine hydrochloride; Mematine Hydrochloride; Mylan-memantine; Namenda; Namenda XR; Namzaric; Novo-memantine; PMS-memantine; Ran-memantine; Ratio-memantine; Riva-memantine; Sandoz Memantine; Sandoz Memantine Fct

>  <SALTS>  (1) 
Memantine Hydrochloride

>  <SECONDARY_ACCESSION_NUMBERS>  (1) 
APRD00221

>  <SMILES>  (1) 
CC12CC3CC(C)(C1)CC(N)(C3)C2

>  <SYNONYMS>  (1) 
Memantina; Memantine; Memantinum

$$$$
