1024
     RDKit          2D

 43 44  0  0  0  0  0  0  0  0999 V2000
    9.7855   -0.1279    0.0000 O   0  0  0  0  0  0  0  0  0  0  0  0
    6.3799   -0.9529    0.0000 O   0  0  0  0  0  0  0  0  0  0  0  0
    7.8089    1.5222    0.0000 O   0  0  0  0  0  0  0  0  0  0  0  0
    9.5603    1.3203    0.0000 O   0  0  0  0  0  0  0  0  0  0  0  0
    2.0930    0.6971    0.0000 O   0  0  0  0  0  0  0  0  0  0  0  0
    2.8075   -0.5404    0.0000 O   0  0  0  0  0  0  0  0  0  0  0  0
    8.5234   -0.5404    0.0000 C   0  0  0  0  0  0  0  0  0  0  0  0
    7.0944    0.2846    0.0000 C   0  0  0  0  0  0  0  0  0  0  0  0
    8.5234    0.2846    0.0000 C   0  0  0  0  0  0  0  0  0  0  0  0
    7.8089   -0.9529    0.0000 C   0  0  0  0  0  0  0  0  0  0  0  0
    7.0944   -0.5404    0.0000 C   0  0  0  0  0  0  0  0  0  0  0  0
    7.8089    0.6971    0.0000 C   0  0  0  0  0  0  0  0  0  0  0  0
    6.3799    0.6971    0.0000 C   0  0  0  0  0  0  0  0  0  0  0  0
    9.3041   -0.7918    0.0000 C   0  0  0  0  0  0  0  0  0  0  0  0
    9.3041    0.5360    0.0000 C   0  0  0  0  0  0  0  0  0  0  0  0
    5.6655    0.2846    0.0000 C   0  0  0  0  0  0  0  0  0  0  0  0
    7.8089   -1.7779    0.0000 C   0  0  0  0  0  0  0  0  0  0  0  0
    4.9509    0.6971    0.0000 C   0  0  0  0  0  0  0  0  0  0  0  0
    4.2365    0.2846    0.0000 C   0  0  0  0  0  0  0  0  0  0  0  0
    3.5220    0.6971    0.0000 C   0  0  0  0  0  0  0  0  0  0  0  0
    4.9509    1.5222    0.0000 C   0  0  0  0  0  0  0  0  0  0  0  0
    6.3799   -1.7779    0.0000 C   0  0  0  0  0  0  0  0  0  0  0  0
    2.8075    0.2846    0.0000 C   0  0  0  0  0  0  0  0  0  0  0  0
    0.0000    0.0000    0.0000 H   0  0  0  0  0  0  0  0  0  0  0  0
    0.0000    0.0000    0.0000 H   0  0  0  0  0  0  0  0  0  0  0  0
    0.0000    0.0000    0.0000 H   0  0  0  0  0  0  0  0  0  0  0  0
    0.0000    0.0000    0.0000 H   0  0  0  0  0  0  0  0  0  0  0  0
    0.0000    0.0000    0.0000 H   0  0  0  0  0  0  0  0  0  0  0  0
    0.0000    0.0000    0.0000 H   0  0  0  0  0  0  0  0  0  0  0  0
    0.0000    0.0000    0.0000 H   0  0  0  0  0  0  0  0  0  0  0  0
    0.0000    0.0000    0.0000 H   0  0  0  0  0  0  0  0  0  0  0  0
    0.0000    0.0000    0.0000 H   0  0  0  0  0  0  0  0  0  0  0  0
    0.0000    0.0000    0.0000 H   0  0  0  0  0  0  0  0  0  0  0  0
    0.0000    0.0000    0.0000 H   0  0  0  0  0  0  0  0  0  0  0  0
    0.0000    0.0000    0.0000 H   0  0  0  0  0  0  0  0  0  0  0  0
    0.0000    0.0000    0.0000 H   0  0  0  0  0  0  0  0  0  0  0  0
    0.0000    0.0000    0.0000 H   0  0  0  0  0  0  0  0  0  0  0  0
    0.0000    0.0000    0.0000 H   0  0  0  0  0  0  0  0  0  0  0  0
    0.0000    0.0000    0.0000 H   0  0  0  0  0  0  0  0  0  0  0  0
    0.0000    0.0000    0.0000 H   0  0  0  0  0  0  0  0  0  0  0  0
    0.0000    0.0000    0.0000 H   0  0  0  0  0  0  0  0  0  0  0  0
    0.0000    0.0000    0.0000 H   0  0  0  0  0  0  0  0  0  0  0  0
    0.0000    0.0000    0.0000 H   0  0  0  0  0  0  0  0  0  0  0  0
  1 14  1  0
  1 15  1  0
  2 11  1  0
  2 22  1  0
  3 12  1  0
  4 15  2  0
  5 23  1  0
  6 23  2  0
  7  9  2  0
  7 10  1  0
  7 14  1  0
  8 11  1  0
  8 12  2  0
  8 13  1  0
  9 12  1  0
  9 15  1  0
 10 11  2  0
 10 17  1  0
 13 16  1  0
 16 18  2  0
 18 19  1  0
 18 21  1  0
 19 20  1  0
 20 23  1  0
  3 24  1  0
  5 25  1  0
 13 26  1  0
 13 27  1  0
 14 28  1  0
 14 29  1  0
 16 30  1  0
 17 31  1  0
 17 32  1  0
 17 33  1  0
 19 34  1  0
 19 35  1  0
 20 36  1  0
 20 37  1  0
 21 38  1  0
 21 39  1  0
 21 40  1  0
 22 41  1  0
 22 42  1  0
 22 43  1  0
M  END
>  <ALOGPS_LOGP>  (1) 
2.36

>  <ALOGPS_LOGS>  (1) 
-3.96

>  <ALOGPS_SOLUBILITY>  (1) 
3.55e-02 g/l

>  <DATABASE_ID>  (1) 
DB01024

>  <DATABASE_NAME>  (1) 
drugbank

>  <DRUGBANK_ID>  (1) 
DB01024

>  <DRUG_GROUPS>  (1) 
approved

>  <EXACT_MASS>  (1) 
320.125988372

>  <FORMULA>  (1) 
C17H20O6

>  <GENERIC_NAME>  (1) 
Mycophenolic acid

>  <INCHI_IDENTIFIER>  (1) 
InChI=1S/C17H20O6/c1-9(5-7-13(18)19)4-6-11-15(20)14-12(8-23-17(14)21)10(2)16(11)22-3/h4,20H,5-8H2,1-3H3,(H,18,19)/b9-4+

>  <INCHI_KEY>  (1) 
HPNSFSBZBAHARI-RUDMXATFSA-N

>  <JCHEM_ACCEPTOR_COUNT>  (1) 
5

>  <JCHEM_AVERAGE_POLARIZABILITY>  (1) 
32.94778056662982

>  <JCHEM_BIOAVAILABILITY>  (1) 
1

>  <JCHEM_DONOR_COUNT>  (1) 
2

>  <JCHEM_FORMAL_CHARGE>  (1) 
0

>  <JCHEM_GHOSE_FILTER>  (1) 
1

>  <JCHEM_IUPAC>  (1) 
(4E)-6-(4-hydroxy-6-methoxy-7-methyl-3-oxo-1,3-dihydro-2-benzofuran-5-yl)-4-methylhex-4-enoic acid

>  <JCHEM_LOGP>  (1) 
3.5275974476666656

>  <JCHEM_MDDR_LIKE_RULE>  (1) 
0

>  <JCHEM_NUMBER_OF_RINGS>  (1) 
2

>  <JCHEM_PHYSIOLOGICAL_CHARGE>  (1) 
-1

>  <JCHEM_PKA>  (1) 
9.758773469703659

>  <JCHEM_PKA_STRONGEST_ACIDIC>  (1) 
3.574787977255424

>  <JCHEM_PKA_STRONGEST_BASIC>  (1) 
-4.068194505368491

>  <JCHEM_POLAR_SURFACE_AREA>  (1) 
93.06

>  <JCHEM_REFRACTIVITY>  (1) 
85.2334

>  <JCHEM_ROTATABLE_BOND_COUNT>  (1) 
6

>  <JCHEM_RULE_OF_FIVE>  (1) 
1

>  <JCHEM_TRADITIONAL_IUPAC>  (1) 
mycophenolic acid

>  <JCHEM_VEBER_RULE>  (1) 
0

>  <MOLECULAR_WEIGHT>  (1) 
320.3371

>  <PRODUCTS>  (1) 
Apo-mycophenolic Acid; Mycophenolic Acid; Myfortic; Sandoz Mycophenolic Acid

>  <SALTS>  (1) 
Mycophenolate sodium

>  <SECONDARY_ACCESSION_NUMBERS>  (1) 
APRD01603; EXPT02208

>  <SMILES>  (1) 
COC1=C(C\C=C(/C)CCC(O)=O)C(O)=C2C(=O)OCC2=C1C

>  <SYNONYMS>  (1) 
(e)-6-(4-Hydroxy-6-methoxy-7-methyl-3-oxo-5-phthalanyl)-4-methyl-4-hexenoic acid; Acide mycophenolique; Acido micofenolico; Acidum mycophenolicum; Micofenolico acido; Mycophenolate; Mycophenols√§ure

$$$$
