
     RDKit          2D

 54 56  0  0  0  0  0  0  0  0999 V2000
    6.4018   -2.4837    0.0000 C   0  0  0  0  0  0  0  0  0  0  0  0
    7.1061   -2.9103    0.0000 N   0  0  0  0  0  0  0  0  0  0  0  0
    7.0807   -3.7185    0.0000 C   0  0  0  0  0  0  0  0  0  0  0  0
    5.6804   -2.8704    0.0000 C   0  0  0  0  0  0  0  0  0  0  0  0
    6.4035   -1.6380    0.0000 O   0  0  0  0  0  0  0  0  0  0  0  0
    7.7936   -4.1502    0.0000 C   0  0  0  0  0  0  0  0  0  0  0  0
    8.4980   -3.7533    0.0000 C   0  0  0  0  0  0  0  0  0  0  0  0
    5.6719   -3.6889    0.0000 C   0  0  0  0  0  0  0  0  0  0  0  0
    4.9675   -2.4386    0.0000 C   0  0  0  0  0  0  0  0  0  0  0  0
    4.2324   -3.6715    0.0000 C   0  0  0  0  0  0  0  0  0  0  0  0
    4.2546   -2.8305    0.0000 C   0  0  0  0  0  0  0  0  0  0  0  0
    4.9504   -4.0948    0.0000 C   0  0  0  0  0  0  0  0  0  0  0  0
    3.4990   -4.0973    0.0000 O   0  0  0  0  0  0  0  0  0  0  0  0
    6.3762   -4.1154    0.0000 C   0  0  0  0  0  0  0  0  0  0  0  0
    7.7681   -4.9585    0.0000 C   0  0  0  0  0  0  0  0  0  0  0  0
    3.4972   -4.9237    0.0000 C   0  0  0  0  0  0  0  0  0  0  0  0
    6.3337   -4.9326    0.0000 C   0  0  0  0  0  0  0  0  0  0  0  0
    7.0551   -5.3695    0.0000 C   0  0  0  0  0  0  0  0  0  0  0  0
    8.5017   -2.9199    0.0000 C   0  0  0  0  0  0  0  0  0  0  0  0
    9.9239   -2.9001    0.0000 N   0  0  0  0  0  0  0  0  0  0  0  0
    9.2094   -2.5032    0.0000 C   0  0  0  0  0  0  0  0  0  0  0  0
    9.9239   -3.7533    0.0000 C   0  0  0  0  0  0  0  0  0  0  0  0
   10.6349   -2.4834    0.0000 C   0  0  0  0  0  0  0  0  0  0  0  0
    9.2094   -1.6697    0.0000 C   0  0  0  0  0  0  0  0  0  0  0  0
   10.6349   -1.6499    0.0000 C   0  0  0  0  0  0  0  0  0  0  0  0
    9.9106   -1.2530    0.0000 C   0  0  0  0  0  0  0  0  0  0  0  0
    0.0000    0.0000    0.0000 H   0  0  0  0  0  0  0  0  0  0  0  0
    0.0000    0.0000    0.0000 H   0  0  0  0  0  0  0  0  0  0  0  0
    0.0000    0.0000    0.0000 H   0  0  0  0  0  0  0  0  0  0  0  0
    0.0000    0.0000    0.0000 H   0  0  0  0  0  0  0  0  0  0  0  0
    0.0000    0.0000    0.0000 H   0  0  0  0  0  0  0  0  0  0  0  0
    0.0000    0.0000    0.0000 H   0  0  0  0  0  0  0  0  0  0  0  0
    0.0000    0.0000    0.0000 H   0  0  0  0  0  0  0  0  0  0  0  0
    0.0000    0.0000    0.0000 H   0  0  0  0  0  0  0  0  0  0  0  0
    0.0000    0.0000    0.0000 H   0  0  0  0  0  0  0  0  0  0  0  0
    0.0000    0.0000    0.0000 H   0  0  0  0  0  0  0  0  0  0  0  0
    0.0000    0.0000    0.0000 H   0  0  0  0  0  0  0  0  0  0  0  0
    0.0000    0.0000    0.0000 H   0  0  0  0  0  0  0  0  0  0  0  0
    0.0000    0.0000    0.0000 H   0  0  0  0  0  0  0  0  0  0  0  0
    0.0000    0.0000    0.0000 H   0  0  0  0  0  0  0  0  0  0  0  0
    0.0000    0.0000    0.0000 H   0  0  0  0  0  0  0  0  0  0  0  0
    0.0000    0.0000    0.0000 H   0  0  0  0  0  0  0  0  0  0  0  0
    0.0000    0.0000    0.0000 H   0  0  0  0  0  0  0  0  0  0  0  0
    0.0000    0.0000    0.0000 H   0  0  0  0  0  0  0  0  0  0  0  0
    0.0000    0.0000    0.0000 H   0  0  0  0  0  0  0  0  0  0  0  0
    0.0000    0.0000    0.0000 H   0  0  0  0  0  0  0  0  0  0  0  0
    0.0000    0.0000    0.0000 H   0  0  0  0  0  0  0  0  0  0  0  0
    0.0000    0.0000    0.0000 H   0  0  0  0  0  0  0  0  0  0  0  0
    0.0000    0.0000    0.0000 H   0  0  0  0  0  0  0  0  0  0  0  0
    0.0000    0.0000    0.0000 H   0  0  0  0  0  0  0  0  0  0  0  0
    0.0000    0.0000    0.0000 H   0  0  0  0  0  0  0  0  0  0  0  0
    0.0000    0.0000    0.0000 H   0  0  0  0  0  0  0  0  0  0  0  0
    0.0000    0.0000    0.0000 H   0  0  0  0  0  0  0  0  0  0  0  0
    0.0000    0.0000    0.0000 H   0  0  0  0  0  0  0  0  0  0  0  0
  2  1  1  0
  3  2  1  0
  4  1  1  0
  5  1  2  0
  6  3  1  0
  7  6  1  0
  8  4  2  0
  9  4  1  0
 10 11  1  0
 11  9  2  0
 12  8  1  0
 13 10  1  0
 14  3  2  0
 15  6  2  0
 16 13  1  0
 17 14  1  0
 18 17  2  0
 12 10  2  0
 18 15  1  0
  7 19  1  0
 20 21  1  0
 21 19  1  0
 22 20  1  0
 23 20  1  0
 24 21  1  0
 25 26  1  0
 26 24  1  0
 25 23  1  0
  2 27  1  0
  7 28  1  0
  7 29  1  0
  8 30  1  0
  9 31  1  0
 11 32  1  0
 12 33  1  0
 14 34  1  0
 15 35  1  0
 16 36  1  0
 16 37  1  0
 16 38  1  0
 17 39  1  0
 18 40  1  0
 19 41  1  0
 19 42  1  0
 21 43  1  0
 22 44  1  0
 22 45  1  0
 22 46  1  0
 23 47  1  0
 23 48  1  0
 24 49  1  0
 24 50  1  0
 25 51  1  0
 25 52  1  0
 26 53  1  0
 26 54  1  0
M  END
>  <ALOGPS_LOGP>  (1) 
4.29

>  <ALOGPS_LOGS>  (1) 
-4.94

>  <ALOGPS_SOLUBILITY>  (1) 
4.01e-03 g/l

>  <DATABASE_ID>  (1) 
DB01228

>  <DATABASE_NAME>  (1) 
drugbank

>  <DRUGBANK_ID>  (1) 
DB01228

>  <DRUG_GROUPS>  (1) 
approved; investigational; withdrawn

>  <EXACT_MASS>  (1) 
352.21507815

>  <FORMULA>  (1) 
C22H28N2O2

>  <GENERIC_NAME>  (1) 
Encainide

>  <INCHI_IDENTIFIER>  (1) 
InChI=1S/C22H28N2O2/c1-24-16-6-5-8-19(24)13-10-17-7-3-4-9-21(17)23-22(25)18-11-14-20(26-2)15-12-18/h3-4,7,9,11-12,14-15,19H,5-6,8,10,13,16H2,1-2H3,(H,23,25)

>  <INCHI_KEY>  (1) 
PJWPNDMDCLXCOM-UHFFFAOYSA-N

>  <JCHEM_ACCEPTOR_COUNT>  (1) 
3

>  <JCHEM_AVERAGE_POLARIZABILITY>  (1) 
41.04076399848722

>  <JCHEM_BIOAVAILABILITY>  (1) 
1

>  <JCHEM_DONOR_COUNT>  (1) 
1

>  <JCHEM_FORMAL_CHARGE>  (1) 
0

>  <JCHEM_GHOSE_FILTER>  (1) 
1

>  <JCHEM_IUPAC>  (1) 
4-methoxy-N-{2-[2-(1-methylpiperidin-2-yl)ethyl]phenyl}benzamide

>  <JCHEM_LOGP>  (1) 
4.492219194666667

>  <JCHEM_MDDR_LIKE_RULE>  (1) 
1

>  <JCHEM_NUMBER_OF_RINGS>  (1) 
3

>  <JCHEM_PHYSIOLOGICAL_CHARGE>  (1) 
1

>  <JCHEM_PKA_STRONGEST_ACIDIC>  (1) 
12.370311685885802

>  <JCHEM_PKA_STRONGEST_BASIC>  (1) 
9.483811215211283

>  <JCHEM_POLAR_SURFACE_AREA>  (1) 
41.57

>  <JCHEM_REFRACTIVITY>  (1) 
107.76559999999998

>  <JCHEM_ROTATABLE_BOND_COUNT>  (1) 
6

>  <JCHEM_RULE_OF_FIVE>  (1) 
1

>  <JCHEM_TRADITIONAL_IUPAC>  (1) 
encainide

>  <JCHEM_VEBER_RULE>  (1) 
0

>  <MOLECULAR_WEIGHT>  (1) 
352.4699

>  <SECONDARY_ACCESSION_NUMBERS>  (1) 
APRD00613

>  <SMILES>  (1) 
COC1=CC=C(C=C1)C(=O)NC1=CC=CC=C1CCC1CCCCN1C

>  <SYNONYMS>  (1) 
Encainida; Encainide; Encainidum

$$$$
