1132
     RDKit          2D

 45 47  0  0  1  0  0  0  0  0999 V2000
    6.6906    2.6473    0.0000 S   0  0  0  0  0  0  0  0  0  0  0  0
    5.2224   -0.7296    0.0000 O   0  0  0  0  0  0  0  0  0  0  0  0
    5.4100    4.3554    0.0000 O   0  0  0  0  0  0  0  0  0  0  0  0
    8.0631    3.1742    0.0000 O   0  0  0  0  0  0  0  0  0  0  0  0
    6.8301    3.9749    0.0000 N   0  0  0  0  0  0  0  0  0  0  0  0
    3.7935   -3.2047    0.0000 N   0  0  0  0  0  0  0  0  0  0  0  0
    5.9369    2.9829    0.0000 C   0  0  0  0  0  0  0  0  0  0  0  0
    5.2224    2.5704    0.0000 C   0  0  0  0  0  0  0  0  0  0  0  0
    5.2224    1.7454    0.0000 C   0  0  0  0  0  0  0  0  0  0  0  0
    6.0231    3.8034    0.0000 C   0  0  0  0  0  0  0  0  0  0  0  0
    5.9369    1.3329    0.0000 C   0  0  0  0  0  0  0  0  0  0  0  0
    4.5079    1.3329    0.0000 C   0  0  0  0  0  0  0  0  0  0  0  0
    4.5079   -1.9671    0.0000 C   0  0  0  0  0  0  0  0  0  0  0  0
    5.2224    0.0954    0.0000 C   0  0  0  0  0  0  0  0  0  0  0  0
    4.5079   -1.1421    0.0000 C   0  0  0  0  0  0  0  0  0  0  0  0
    5.9369    0.5079    0.0000 C   0  0  0  0  0  0  0  0  0  0  0  0
    4.5079    0.5079    0.0000 C   0  0  0  0  0  0  0  0  0  0  0  0
    3.7935   -2.3796    0.0000 C   0  0  0  0  0  0  0  0  0  0  0  0
    7.2426    3.2604    0.0000 C   0  0  0  0  0  0  0  0  0  0  0  0
    2.3645   -3.2047    0.0000 C   0  0  0  0  0  0  0  0  0  0  0  0
    3.0790   -1.9671    0.0000 C   0  0  0  0  0  0  0  0  0  0  0  0
    1.6500   -3.6172    0.0000 C   0  0  0  0  0  0  0  0  0  0  0  0
    2.3645   -2.3796    0.0000 C   0  0  0  0  0  0  0  0  0  0  0  0
    3.0790   -3.6172    0.0000 C   0  0  0  0  0  0  0  0  0  0  0  0
    1.6500   -4.4422    0.0000 C   0  0  0  0  0  0  0  0  0  0  0  0
    0.0000    0.0000    0.0000 H   0  0  0  0  0  0  0  0  0  0  0  0
    0.0000    0.0000    0.0000 H   0  0  0  0  0  0  0  0  0  0  0  0
    0.0000    0.0000    0.0000 H   0  0  0  0  0  0  0  0  0  0  0  0
    0.0000    0.0000    0.0000 H   0  0  0  0  0  0  0  0  0  0  0  0
    0.0000    0.0000    0.0000 H   0  0  0  0  0  0  0  0  0  0  0  0
    0.0000    0.0000    0.0000 H   0  0  0  0  0  0  0  0  0  0  0  0
    0.0000    0.0000    0.0000 H   0  0  0  0  0  0  0  0  0  0  0  0
    0.0000    0.0000    0.0000 H   0  0  0  0  0  0  0  0  0  0  0  0
    0.0000    0.0000    0.0000 H   0  0  0  0  0  0  0  0  0  0  0  0
    0.0000    0.0000    0.0000 H   0  0  0  0  0  0  0  0  0  0  0  0
    0.0000    0.0000    0.0000 H   0  0  0  0  0  0  0  0  0  0  0  0
    0.0000    0.0000    0.0000 H   0  0  0  0  0  0  0  0  0  0  0  0
    0.0000    0.0000    0.0000 H   0  0  0  0  0  0  0  0  0  0  0  0
    0.0000    0.0000    0.0000 H   0  0  0  0  0  0  0  0  0  0  0  0
    0.0000    0.0000    0.0000 H   0  0  0  0  0  0  0  0  0  0  0  0
    0.0000    0.0000    0.0000 H   0  0  0  0  0  0  0  0  0  0  0  0
    0.0000    0.0000    0.0000 H   0  0  0  0  0  0  0  0  0  0  0  0
    0.0000    0.0000    0.0000 H   0  0  0  0  0  0  0  0  0  0  0  0
    0.0000    0.0000    0.0000 H   0  0  0  0  0  0  0  0  0  0  0  0
    0.0000    0.0000    0.0000 H   0  0  0  0  0  0  0  0  0  0  0  0
  1  7  1  0
  1 19  1  0
  2 14  1  0
  2 15  1  0
  3 10  2  0
  4 19  2  0
  5 10  1  0
  5 19  1  0
  6 18  2  0
  6 24  1  0
  7  8  1  0
  7 10  1  0
  8  9  1  0
  9 11  2  0
  9 12  1  0
 11 16  1  0
 12 17  2  0
 13 15  1  0
 13 18  1  0
 14 16  2  0
 14 17  1  0
 18 21  1  0
 20 22  1  0
 20 23  1  0
 20 24  2  0
 21 23  2  0
 22 25  1  0
  5 26  1  0
  7 27  1  0
  8 28  1  0
  8 29  1  0
 11 30  1  0
 12 31  1  0
 13 32  1  0
 13 33  1  0
 15 34  1  0
 15 35  1  0
 16 36  1  0
 17 37  1  0
 21 38  1  0
 22 39  1  0
 22 40  1  0
 23 41  1  0
 24 42  1  0
 25 43  1  0
 25 44  1  0
 25 45  1  0
M  END
>  <ALOGPS_LOGP>  (1) 
3.17

>  <ALOGPS_LOGS>  (1) 
-4.91

>  <ALOGPS_SOLUBILITY>  (1) 
4.42e-03 g/l

>  <DATABASE_ID>  (1) 
DB01132

>  <DATABASE_NAME>  (1) 
drugbank

>  <DRUGBANK_ID>  (1) 
DB01132

>  <DRUG_GROUPS>  (1) 
approved; investigational

>  <EXACT_MASS>  (1) 
356.119463206

>  <FORMULA>  (1) 
C19H20N2O3S

>  <GENERIC_NAME>  (1) 
Pioglitazone

>  <INCHI_IDENTIFIER>  (1) 
InChI=1S/C19H20N2O3S/c1-2-13-3-6-15(20-12-13)9-10-24-16-7-4-14(5-8-16)11-17-18(22)21-19(23)25-17/h3-8,12,17H,2,9-11H2,1H3,(H,21,22,23)

>  <INCHI_KEY>  (1) 
HYAFETHFCAUJAY-UHFFFAOYSA-N

>  <INTERNATIONAL_BRANDS>  (1) 
Actost; Glustin

>  <JCHEM_ACCEPTOR_COUNT>  (1) 
4

>  <JCHEM_AVERAGE_POLARIZABILITY>  (1) 
37.91018046697517

>  <JCHEM_BIOAVAILABILITY>  (1) 
1

>  <JCHEM_DONOR_COUNT>  (1) 
1

>  <JCHEM_FORMAL_CHARGE>  (1) 
0

>  <JCHEM_GHOSE_FILTER>  (1) 
1

>  <JCHEM_IUPAC>  (1) 
5-({4-[2-(5-ethylpyridin-2-yl)ethoxy]phenyl}methyl)-1,3-thiazolidine-2,4-dione

>  <JCHEM_LOGP>  (1) 
3.328248699886255

>  <JCHEM_MDDR_LIKE_RULE>  (1) 
1

>  <JCHEM_NUMBER_OF_RINGS>  (1) 
3

>  <JCHEM_PHYSIOLOGICAL_CHARGE>  (1) 
-1

>  <JCHEM_PKA>  (1) 
19.06037916460504

>  <JCHEM_PKA_STRONGEST_ACIDIC>  (1) 
6.657648829932739

>  <JCHEM_PKA_STRONGEST_BASIC>  (1) 
5.598025373449761

>  <JCHEM_POLAR_SURFACE_AREA>  (1) 
68.29

>  <JCHEM_REFRACTIVITY>  (1) 
97.39080000000001

>  <JCHEM_ROTATABLE_BOND_COUNT>  (1) 
7

>  <JCHEM_RULE_OF_FIVE>  (1) 
1

>  <JCHEM_TRADITIONAL_IUPAC>  (1) 
pioglitazone

>  <JCHEM_VEBER_RULE>  (1) 
0

>  <MOLECULAR_WEIGHT>  (1) 
356.439

>  <PRODUCTS>  (1) 
Accel Pioglitazone; Ach-pioglitazone; Act Pioglitazone; Actoplus Met; Actoplus Met XR; Actos; Actos (15mg); Actos (30mg); Actos (45mg); Ag-pioglitazone; Alogliptin and Pioglitazone; Apo-pioglitazone; Auro-pioglitazone; Ava-pioglitazone; Dom-pioglitazone; Duetact; Glidipion; Glubrava; Glustin; Incresync; Jamp-pioglitazone; Mint-pioglitazone; Mylan-pioglitazone; Oseni; PHL-pioglitazone; PMS-pioglitazone; Paglitaz; Pioglitazole and metformin hydrochloride; Pioglitazone; Pioglitazone Accord; Pioglitazone Actavis; Pioglitazone HCL and Metformin HCL; Pioglitazone HCl; Pioglitazone Hydrochloride; Pioglitazone Hydrochloride and Metformin Hydrochloride; Pioglitazone Krka; Pioglitazone Teva; Pioglitazone Teva Pharma; Pioglitazone and Glimepiride; Pioglitazone and Metformin Hydrochloride; Pioglitazone and Metformin Hydrocholride; Pioglitazone and metformin; Pioglitazone hydrochloride and glimepiride; Pioglitazonehydrochloride; Pro-pioglitazone; Ran-pioglitazone; Ratio-pioglitazone; Sandoz Pioglitazone; Sepioglin; Tandemact; Teva-pioglitazone; Torrent-pioglitazone; Van-pioglitazone; Zym-pioglitazone

>  <SALTS>  (1) 
Pioglitazone Hydrochloride

>  <SECONDARY_ACCESSION_NUMBERS>  (1) 
APRD00653

>  <SMILES>  (1) 
CCC1=CN=C(CCOC2=CC=C(CC3SC(=O)NC3=O)C=C2)C=C1

>  <SYNONYMS>  (1) 
5-{4-[2-(5-ethylpyridin-2-yl)ethoxy]benzyl}-1,3-thiazolidine-2,4-dione; Pioglitazona; Pioglitazone; Pioglitazonum

$$$$
