1067
     RDKit          2D

 58 60  0  0  0  0  0  0  0  0999 V2000
    3.7935    2.2688    0.0000 S   0  0  0  0  0  0  0  0  0  0  0  0
    5.2224    3.0938    0.0000 O   0  0  0  0  0  0  0  0  0  0  0  0
    2.9685    2.2688    0.0000 O   0  0  0  0  0  0  0  0  0  0  0  0
    4.6185    2.2688    0.0000 O   0  0  0  0  0  0  0  0  0  0  0  0
    1.6500   -2.2688    0.0000 O   0  0  0  0  0  0  0  0  0  0  0  0
    4.5080    4.3313    0.0000 N   0  0  0  0  0  0  0  0  0  0  0  0
    3.7935    3.0938    0.0000 N   0  0  0  0  0  0  0  0  0  0  0  0
    3.0791   -2.2688    0.0000 N   0  0  0  0  0  0  0  0  0  0  0  0
    3.0791   -3.9188    0.0000 N   0  0  0  0  0  0  0  0  0  0  0  0
    1.6500   -4.7439    0.0000 N   0  0  0  0  0  0  0  0  0  0  0  0
    5.2224    4.7439    0.0000 C   0  0  0  0  0  0  0  0  0  0  0  0
    5.9370    4.3313    0.0000 C   0  0  0  0  0  0  0  0  0  0  0  0
    5.2224    5.5689    0.0000 C   0  0  0  0  0  0  0  0  0  0  0  0
    6.6515    4.7439    0.0000 C   0  0  0  0  0  0  0  0  0  0  0  0
    5.9370    5.9814    0.0000 C   0  0  0  0  0  0  0  0  0  0  0  0
    6.6515    5.5689    0.0000 C   0  0  0  0  0  0  0  0  0  0  0  0
    4.5080    3.5063    0.0000 C   0  0  0  0  0  0  0  0  0  0  0  0
    3.7935    1.4438    0.0000 C   0  0  0  0  0  0  0  0  0  0  0  0
    3.7935   -0.2063    0.0000 C   0  0  0  0  0  0  0  0  0  0  0  0
    3.0791    1.0313    0.0000 C   0  0  0  0  0  0  0  0  0  0  0  0
    4.5080    1.0313    0.0000 C   0  0  0  0  0  0  0  0  0  0  0  0
    3.7935   -1.0313    0.0000 C   0  0  0  0  0  0  0  0  0  0  0  0
    3.0791    0.2063    0.0000 C   0  0  0  0  0  0  0  0  0  0  0  0
    4.5080    0.2063    0.0000 C   0  0  0  0  0  0  0  0  0  0  0  0
    3.0791   -1.4438    0.0000 C   0  0  0  0  0  0  0  0  0  0  0  0
    2.3645   -2.6813    0.0000 C   0  0  0  0  0  0  0  0  0  0  0  0
    2.3645   -3.5063    0.0000 C   0  0  0  0  0  0  0  0  0  0  0  0
    1.6500   -3.9188    0.0000 C   0  0  0  0  0  0  0  0  0  0  0  0
    2.3645   -5.1564    0.0000 C   0  0  0  0  0  0  0  0  0  0  0  0
    3.0791   -4.7439    0.0000 C   0  0  0  0  0  0  0  0  0  0  0  0
    2.3645   -5.9814    0.0000 C   0  0  0  0  0  0  0  0  0  0  0  0
    0.0000    0.0000    0.0000 H   0  0  0  0  0  0  0  0  0  0  0  0
    0.0000    0.0000    0.0000 H   0  0  0  0  0  0  0  0  0  0  0  0
    0.0000    0.0000    0.0000 H   0  0  0  0  0  0  0  0  0  0  0  0
    0.0000    0.0000    0.0000 H   0  0  0  0  0  0  0  0  0  0  0  0
    0.0000    0.0000    0.0000 H   0  0  0  0  0  0  0  0  0  0  0  0
    0.0000    0.0000    0.0000 H   0  0  0  0  0  0  0  0  0  0  0  0
    0.0000    0.0000    0.0000 H   0  0  0  0  0  0  0  0  0  0  0  0
    0.0000    0.0000    0.0000 H   0  0  0  0  0  0  0  0  0  0  0  0
    0.0000    0.0000    0.0000 H   0  0  0  0  0  0  0  0  0  0  0  0
    0.0000    0.0000    0.0000 H   0  0  0  0  0  0  0  0  0  0  0  0
    0.0000    0.0000    0.0000 H   0  0  0  0  0  0  0  0  0  0  0  0
    0.0000    0.0000    0.0000 H   0  0  0  0  0  0  0  0  0  0  0  0
    0.0000    0.0000    0.0000 H   0  0  0  0  0  0  0  0  0  0  0  0
    0.0000    0.0000    0.0000 H   0  0  0  0  0  0  0  0  0  0  0  0
    0.0000    0.0000    0.0000 H   0  0  0  0  0  0  0  0  0  0  0  0
    0.0000    0.0000    0.0000 H   0  0  0  0  0  0  0  0  0  0  0  0
    0.0000    0.0000    0.0000 H   0  0  0  0  0  0  0  0  0  0  0  0
    0.0000    0.0000    0.0000 H   0  0  0  0  0  0  0  0  0  0  0  0
    0.0000    0.0000    0.0000 H   0  0  0  0  0  0  0  0  0  0  0  0
    0.0000    0.0000    0.0000 H   0  0  0  0  0  0  0  0  0  0  0  0
    0.0000    0.0000    0.0000 H   0  0  0  0  0  0  0  0  0  0  0  0
    0.0000    0.0000    0.0000 H   0  0  0  0  0  0  0  0  0  0  0  0
    0.0000    0.0000    0.0000 H   0  0  0  0  0  0  0  0  0  0  0  0
    0.0000    0.0000    0.0000 H   0  0  0  0  0  0  0  0  0  0  0  0
    0.0000    0.0000    0.0000 H   0  0  0  0  0  0  0  0  0  0  0  0
    0.0000    0.0000    0.0000 H   0  0  0  0  0  0  0  0  0  0  0  0
    0.0000    0.0000    0.0000 H   0  0  0  0  0  0  0  0  0  0  0  0
  1  3  2  0
  1  4  2  0
  1  7  1  0
  1 18  1  0
  2 17  2  0
  5 26  2  0
  6 11  1  0
  6 17  1  0
  7 17  1  0
  8 25  1  0
  8 26  1  0
  9 27  2  0
  9 30  1  0
 10 28  2  0
 10 29  1  0
 11 12  1  0
 11 13  1  0
 12 14  1  0
 13 15  1  0
 14 16  1  0
 15 16  1  0
 18 20  2  0
 18 21  1  0
 19 22  1  0
 19 23  2  0
 19 24  1  0
 20 23  1  0
 21 24  2  0
 22 25  1  0
 26 27  1  0
 27 28  1  0
 29 30  2  0
 29 31  1  0
  6 32  1  0
  7 33  1  0
  8 34  1  0
 11 35  1  0
 12 36  1  0
 12 37  1  0
 13 38  1  0
 13 39  1  0
 14 40  1  0
 14 41  1  0
 15 42  1  0
 15 43  1  0
 16 44  1  0
 16 45  1  0
 20 46  1  0
 21 47  1  0
 22 48  1  0
 22 49  1  0
 23 50  1  0
 24 51  1  0
 25 52  1  0
 25 53  1  0
 28 54  1  0
 30 55  1  0
 31 56  1  0
 31 57  1  0
 31 58  1  0
M  END
>  <ALOGPS_LOGP>  (1) 
1.83

>  <ALOGPS_LOGS>  (1) 
-4.43

>  <ALOGPS_SOLUBILITY>  (1) 
1.64e-02 g/l

>  <DATABASE_ID>  (1) 
DB01067

>  <DATABASE_NAME>  (1) 
drugbank

>  <DRUGBANK_ID>  (1) 
DB01067

>  <DRUG_GROUPS>  (1) 
approved

>  <EXACT_MASS>  (1) 
445.178375067

>  <FORMULA>  (1) 
C21H27N5O4S

>  <GENERIC_NAME>  (1) 
Glipizide

>  <INCHI_IDENTIFIER>  (1) 
InChI=1S/C21H27N5O4S/c1-15-13-24-19(14-23-15)20(27)22-12-11-16-7-9-18(10-8-16)31(29,30)26-21(28)25-17-5-3-2-4-6-17/h7-10,13-14,17H,2-6,11-12H2,1H3,(H,22,27)(H2,25,26,28)

>  <INCHI_KEY>  (1) 
ZJJXGWJIGJFDTL-UHFFFAOYSA-N

>  <INTERNATIONAL_BRANDS>  (1) 
Aldiab; Digrin; Dipazide; Glibenese; Glibénèse; Glibetin; Glican; Glidiab; Glipid; Glipin; Glix; Gluco-Rite; Glucolip; Glucozide; Glupitel; Glupizide; Glyde; Glydiazinamide; Melizide; Mindiab; Minidab; Minidiab; Minodiab; Napizide; Ozidia; Sucrazide; Zitrol XR

>  <JCHEM_ACCEPTOR_COUNT>  (1) 
6

>  <JCHEM_AVERAGE_POLARIZABILITY>  (1) 
47.64203893895158

>  <JCHEM_BIOAVAILABILITY>  (1) 
1

>  <JCHEM_DONOR_COUNT>  (1) 
3

>  <JCHEM_FORMAL_CHARGE>  (1) 
0

>  <JCHEM_GHOSE_FILTER>  (1) 
1

>  <JCHEM_IUPAC>  (1) 
N-[2-(4-{[(cyclohexylcarbamoyl)amino]sulfonyl}phenyl)ethyl]-5-methylpyrazine-2-carboxamide

>  <JCHEM_LOGP>  (1) 
1.4266122779999995

>  <JCHEM_MDDR_LIKE_RULE>  (1) 
1

>  <JCHEM_NUMBER_OF_RINGS>  (1) 
3

>  <JCHEM_PHYSIOLOGICAL_CHARGE>  (1) 
-1

>  <JCHEM_PKA>  (1) 
13.870435150472424

>  <JCHEM_PKA_STRONGEST_ACIDIC>  (1) 
4.320202268505531

>  <JCHEM_PKA_STRONGEST_BASIC>  (1) 
0.05924590420617015

>  <JCHEM_POLAR_SURFACE_AREA>  (1) 
130.15

>  <JCHEM_REFRACTIVITY>  (1) 
115.61779999999999

>  <JCHEM_ROTATABLE_BOND_COUNT>  (1) 
6

>  <JCHEM_RULE_OF_FIVE>  (1) 
1

>  <JCHEM_TRADITIONAL_IUPAC>  (1) 
glipizide

>  <JCHEM_VEBER_RULE>  (1) 
0

>  <MOLECULAR_WEIGHT>  (1) 
445.535

>  <PRODUCTS>  (1) 
GLIPIZIDE and METFORMIN HYDROCHLORIDE; Glipizide; Glipizide ER; Glipizide XL; Glipizide and Metformin HCl; Glipizide and Metformin Hydrochloride; GlipizideER ER; Glucotrol; Glucotrol XL

>  <SECONDARY_ACCESSION_NUMBERS>  (1) 
APRD00436

>  <SMILES>  (1) 
CC1=CN=C(C=N1)C(=O)NCCC1=CC=C(C=C1)S(=O)(=O)NC(=O)NC1CCCCC1

>  <SYNONYMS>  (1) 
1-cyclohexyl-3-({p-[2-(5-methylpyrazinecarboxamido)ethyl]phenyl}sulfonyl)urea; Glipizida; Glipizide; Glipizidum; N-{4-[β-(5-methylpyrazine-2-carboxamido)ethyl]benzenesulphonyl}-N'-cyclohexylurea

$$$$
