1203
     RDKit          2D

 49 50  0  0  1  0  0  0  0  0999 V2000
    1.6500    1.1569    0.0000 O   0  0  0  0  0  0  0  0  0  0  0  0
    1.6500    2.8069    0.0000 O   0  0  0  0  0  0  0  0  0  0  0  0
    4.5214    0.3034    0.0000 O   0  0  0  0  0  0  0  0  0  0  0  0
    4.5023   -1.3466    0.0000 O   0  0  0  0  0  0  0  0  0  0  0  0
    5.9216   -2.1880    0.0000 N   0  0  0  0  0  0  0  0  0  0  0  0
    2.3645    1.5694    0.0000 C   0  0  0  0  0  0  0  0  0  0  0  0
    2.3645    2.3944    0.0000 C   0  0  0  0  0  0  0  0  0  0  0  0
    3.0790    1.1569    0.0000 C   0  0  0  0  0  0  0  0  0  0  0  0
    3.0790    2.8069    0.0000 C   0  0  0  0  0  0  0  0  0  0  0  0
    3.7934    1.5694    0.0000 C   0  0  0  0  0  0  0  0  0  0  0  0
    3.7934    2.3944    0.0000 C   0  0  0  0  0  0  0  0  0  0  0  0
    4.5309    1.1283    0.0000 C   0  0  0  0  0  0  0  0  0  0  0  0
    6.6313   -2.6087    0.0000 C   0  0  0  0  0  0  0  0  0  0  0  0
    4.5309    2.8355    0.0000 C   0  0  0  0  0  0  0  0  0  0  0  0
    5.2215   -0.9423    0.0000 C   0  0  0  0  0  0  0  0  0  0  0  0
    5.9312   -1.3631    0.0000 C   0  0  0  0  0  0  0  0  0  0  0  0
    5.2310   -0.1174    0.0000 C   0  0  0  0  0  0  0  0  0  0  0  0
    5.2784    1.5522    0.0000 C   0  0  0  0  0  0  0  0  0  0  0  0
    5.2784    2.4116    0.0000 C   0  0  0  0  0  0  0  0  0  0  0  0
    7.3409   -3.0295    0.0000 C   0  0  0  0  0  0  0  0  0  0  0  0
    6.2105   -3.3184    0.0000 C   0  0  0  0  0  0  0  0  0  0  0  0
    7.0520   -1.8991    0.0000 C   0  0  0  0  0  0  0  0  0  0  0  0
    0.0000    0.0000    0.0000 H   0  0  0  0  0  0  0  0  0  0  0  0
    0.0000    0.0000    0.0000 H   0  0  0  0  0  0  0  0  0  0  0  0
    0.0000    0.0000    0.0000 H   0  0  0  0  0  0  0  0  0  0  0  0
    0.0000    0.0000    0.0000 H   0  0  0  0  0  0  0  0  0  0  0  0
    0.0000    0.0000    0.0000 H   0  0  0  0  0  0  0  0  0  0  0  0
    0.0000    0.0000    0.0000 H   0  0  0  0  0  0  0  0  0  0  0  0
    0.0000    0.0000    0.0000 H   0  0  0  0  0  0  0  0  0  0  0  0
    0.0000    0.0000    0.0000 H   0  0  0  0  0  0  0  0  0  0  0  0
    0.0000    0.0000    0.0000 H   0  0  0  0  0  0  0  0  0  0  0  0
    0.0000    0.0000    0.0000 H   0  0  0  0  0  0  0  0  0  0  0  0
    0.0000    0.0000    0.0000 H   0  0  0  0  0  0  0  0  0  0  0  0
    0.0000    0.0000    0.0000 H   0  0  0  0  0  0  0  0  0  0  0  0
    0.0000    0.0000    0.0000 H   0  0  0  0  0  0  0  0  0  0  0  0
    0.0000    0.0000    0.0000 H   0  0  0  0  0  0  0  0  0  0  0  0
    0.0000    0.0000    0.0000 H   0  0  0  0  0  0  0  0  0  0  0  0
    0.0000    0.0000    0.0000 H   0  0  0  0  0  0  0  0  0  0  0  0
    0.0000    0.0000    0.0000 H   0  0  0  0  0  0  0  0  0  0  0  0
    0.0000    0.0000    0.0000 H   0  0  0  0  0  0  0  0  0  0  0  0
    0.0000    0.0000    0.0000 H   0  0  0  0  0  0  0  0  0  0  0  0
    0.0000    0.0000    0.0000 H   0  0  0  0  0  0  0  0  0  0  0  0
    0.0000    0.0000    0.0000 H   0  0  0  0  0  0  0  0  0  0  0  0
    0.0000    0.0000    0.0000 H   0  0  0  0  0  0  0  0  0  0  0  0
    0.0000    0.0000    0.0000 H   0  0  0  0  0  0  0  0  0  0  0  0
    0.0000    0.0000    0.0000 H   0  0  0  0  0  0  0  0  0  0  0  0
    0.0000    0.0000    0.0000 H   0  0  0  0  0  0  0  0  0  0  0  0
    0.0000    0.0000    0.0000 H   0  0  0  0  0  0  0  0  0  0  0  0
    0.0000    0.0000    0.0000 H   0  0  0  0  0  0  0  0  0  0  0  0
  6  1  1  6
  7  2  1  6
  3 12  1  0
  3 17  1  0
  4 15  1  0
  5 13  1  0
  5 16  1  0
  6  7  1  0
  6  8  1  0
  7  9  1  0
  8 10  1  0
  9 11  1  0
 10 11  2  0
 10 12  1  0
 11 14  1  0
 12 18  2  0
 13 20  1  0
 13 21  1  0
 13 22  1  0
 14 19  2  0
 15 16  1  0
 15 17  1  0
 18 19  1  0
  1 23  1  0
  2 24  1  0
  4 25  1  0
  5 26  1  0
  6 27  1  0
  7 28  1  0
  8 29  1  0
  8 30  1  0
  9 31  1  0
  9 32  1  0
 14 33  1  0
 15 34  1  0
 16 35  1  0
 16 36  1  0
 17 37  1  0
 17 38  1  0
 18 39  1  0
 19 40  1  0
 20 41  1  0
 20 42  1  0
 20 43  1  0
 21 44  1  0
 21 45  1  0
 21 46  1  0
 22 47  1  0
 22 48  1  0
 22 49  1  0
M  END
>  <ALOGPS_LOGP>  (1) 
1.23

>  <ALOGPS_LOGS>  (1) 
-2.14

>  <ALOGPS_SOLUBILITY>  (1) 
2.25e+00 g/l

>  <DATABASE_ID>  (1) 
DB01203

>  <DATABASE_NAME>  (1) 
drugbank

>  <DRUGBANK_ID>  (1) 
DB01203

>  <DRUG_GROUPS>  (1) 
approved

>  <EXACT_MASS>  (1) 
309.194008357

>  <FORMULA>  (1) 
C17H27NO4

>  <GENERIC_NAME>  (1) 
Nadolol

>  <INCHI_IDENTIFIER>  (1) 
InChI=1S/C17H27NO4/c1-17(2,3)18-9-12(19)10-22-16-6-4-5-11-7-14(20)15(21)8-13(11)16/h4-6,12,14-15,18-21H,7-10H2,1-3H3/t12?,14-,15+/m1/s1

>  <INCHI_KEY>  (1) 
VWPOSFSPZNDTMJ-UCWKZMIHSA-N

>  <INTERNATIONAL_BRANDS>  (1) 
Anabet; Solgol

>  <JCHEM_ACCEPTOR_COUNT>  (1) 
5

>  <JCHEM_AVERAGE_POLARIZABILITY>  (1) 
34.6284874795157

>  <JCHEM_BIOAVAILABILITY>  (1) 
1

>  <JCHEM_DONOR_COUNT>  (1) 
4

>  <JCHEM_FORMAL_CHARGE>  (1) 
0

>  <JCHEM_GHOSE_FILTER>  (1) 
1

>  <JCHEM_IUPAC>  (1) 
(2R,3S)-5-[3-(tert-butylamino)-2-hydroxypropoxy]-1,2,3,4-tetrahydronaphthalene-2,3-diol

>  <JCHEM_LOGP>  (1) 
0.8654279130000008

>  <JCHEM_MDDR_LIKE_RULE>  (1) 
0

>  <JCHEM_NUMBER_OF_RINGS>  (1) 
2

>  <JCHEM_PHYSIOLOGICAL_CHARGE>  (1) 
1

>  <JCHEM_PKA>  (1) 
14.219191149274181

>  <JCHEM_PKA_STRONGEST_ACIDIC>  (1) 
13.586200504793112

>  <JCHEM_PKA_STRONGEST_BASIC>  (1) 
9.759478916414329

>  <JCHEM_POLAR_SURFACE_AREA>  (1) 
81.95

>  <JCHEM_REFRACTIVITY>  (1) 
85.52690000000001

>  <JCHEM_ROTATABLE_BOND_COUNT>  (1) 
6

>  <JCHEM_RULE_OF_FIVE>  (1) 
1

>  <JCHEM_TRADITIONAL_IUPAC>  (1) 
nadolol

>  <JCHEM_VEBER_RULE>  (1) 
0

>  <MOLECULAR_WEIGHT>  (1) 
309.4006

>  <PRODUCTS>  (1) 
Corgard; Corgard Tab 160mg; Corgard Tab 40mg; Corgard Tab 80mg; Corzide; Corzide Tab W Nadolol 40mg; Corzide Tab W Nadolol 80mg; Nadolol; Nadolol and Bendroflumethiazide; Nadolol-160 Tab 160mg; Nadolol-40 Tab 40mg; Nadolol-80 Tab 80mg; Ratio-nadolol Tab 160mg; Ratio-nadolol Tab 40mg; Ratio-nadolol Tab 80mg; Teva-nadolol

>  <SECONDARY_ACCESSION_NUMBERS>  (1) 
APRD00301

>  <SMILES>  (1) 
CC(C)(C)NCC(O)COC1=CC=CC2=C1C[C@H](O)[C@H](O)C2

$$$$
