1594
     RDKit          2D

 38 40  0  0  1  0  0  0  0  0999 V2000
    4.6690   -2.3783    0.0000 Cl  0  0  0  0  0  0  0  0  0  0  0  0
    5.7303   -1.4841    0.0000 F   0  0  0  0  0  0  0  0  0  0  0  0
    6.0034    2.3401    0.0000 O   0  0  0  0  0  0  0  0  0  0  0  0
    4.4625    2.3401    0.0000 O   0  0  0  0  0  0  0  0  0  0  0  0
    4.3060    0.9518    0.0000 N   0  0  0  0  0  0  0  0  0  0  0  0
    6.1598    0.9518    0.0000 N   0  0  0  0  0  0  0  0  0  0  0  0
    1.6500    2.2908    0.0000 N   0  0  0  0  0  0  0  0  0  0  0  0
    4.4897    0.1475    0.0000 C   0  0  0  0  0  0  0  0  0  0  0  0
    5.2329   -0.2105    0.0000 C   0  0  0  0  0  0  0  0  0  0  0  0
    3.5018    1.1354    0.0000 C   0  0  0  0  0  0  0  0  0  0  0  0
    5.9762    0.1475    0.0000 C   0  0  0  0  0  0  0  0  0  0  0  0
    4.8204    1.5968    0.0000 C   0  0  0  0  0  0  0  0  0  0  0  0
    5.6454    1.5968    0.0000 C   0  0  0  0  0  0  0  0  0  0  0  0
    3.7723   -0.3256    0.0000 C   0  0  0  0  0  0  0  0  0  0  0  0
    5.3104   -1.0663    0.0000 C   0  0  0  0  0  0  0  0  0  0  0  0
    6.6212   -0.3669    0.0000 C   0  0  0  0  0  0  0  0  0  0  0  0
    3.2586    1.9237    0.0000 C   0  0  0  0  0  0  0  0  0  0  0  0
    3.8299   -1.1830    0.0000 C   0  0  0  0  0  0  0  0  0  0  0  0
    4.6041   -1.5559    0.0000 C   0  0  0  0  0  0  0  0  0  0  0  0
    6.4983   -1.1827    0.0000 C   0  0  0  0  0  0  0  0  0  0  0  0
    7.3892   -0.0655    0.0000 C   0  0  0  0  0  0  0  0  0  0  0  0
    7.1433   -1.6971    0.0000 C   0  0  0  0  0  0  0  0  0  0  0  0
    8.0342   -0.5799    0.0000 C   0  0  0  0  0  0  0  0  0  0  0  0
    7.9113   -1.3956    0.0000 C   0  0  0  0  0  0  0  0  0  0  0  0
    2.4543    2.1073    0.0000 C   0  0  0  0  0  0  0  0  0  0  0  0
    0.0000    0.0000    0.0000 H   0  0  0  0  0  0  0  0  0  0  0  0
    0.0000    0.0000    0.0000 H   0  0  0  0  0  0  0  0  0  0  0  0
    0.0000    0.0000    0.0000 H   0  0  0  0  0  0  0  0  0  0  0  0
    0.0000    0.0000    0.0000 H   0  0  0  0  0  0  0  0  0  0  0  0
    0.0000    0.0000    0.0000 H   0  0  0  0  0  0  0  0  0  0  0  0
    0.0000    0.0000    0.0000 H   0  0  0  0  0  0  0  0  0  0  0  0
    0.0000    0.0000    0.0000 H   0  0  0  0  0  0  0  0  0  0  0  0
    0.0000    0.0000    0.0000 H   0  0  0  0  0  0  0  0  0  0  0  0
    0.0000    0.0000    0.0000 H   0  0  0  0  0  0  0  0  0  0  0  0
    0.0000    0.0000    0.0000 H   0  0  0  0  0  0  0  0  0  0  0  0
    0.0000    0.0000    0.0000 H   0  0  0  0  0  0  0  0  0  0  0  0
    0.0000    0.0000    0.0000 H   0  0  0  0  0  0  0  0  0  0  0  0
    0.0000    0.0000    0.0000 H   0  0  0  0  0  0  0  0  0  0  0  0
  1 19  1  0
  2 20  1  0
  3 13  1  0
  4 12  2  0
  5  8  1  0
  5 10  1  0
  5 12  1  0
  6 11  2  0
  6 13  1  0
  7 25  3  0
  8  9  2  0
  8 14  1  0
  9 11  1  0
  9 15  1  0
 10 17  1  0
 11 16  1  0
 12 13  1  0
 14 18  2  0
 15 19  2  0
 16 20  2  0
 16 21  1  0
 17 25  1  0
 18 19  1  0
 20 22  1  0
 21 23  2  0
 22 24  2  0
 23 24  1  0
  3 26  1  0
 10 27  1  0
 10 28  1  0
 13 29  1  0
 14 30  1  0
 15 31  1  0
 17 32  1  0
 17 33  1  0
 18 34  1  0
 21 35  1  0
 22 36  1  0
 23 37  1  0
 24 38  1  0
M  END
>  <ALOGPS_LOGP>  (1) 
2.42

>  <ALOGPS_LOGS>  (1) 
-4.48

>  <ALOGPS_SOLUBILITY>  (1) 
1.20e-02 g/l

>  <DATABASE_ID>  (1) 
DB01594

>  <DATABASE_NAME>  (1) 
drugbank

>  <DRUGBANK_ID>  (1) 
DB01594

>  <DRUG_GROUPS>  (1) 
approved

>  <EXACT_MASS>  (1) 
357.068032587

>  <FORMULA>  (1) 
C18H13ClFN3O2

>  <GENERIC_NAME>  (1) 
Cinolazepam

>  <INCHI_IDENTIFIER>  (1) 
InChI=1S/C18H13ClFN3O2/c19-11-6-7-15-13(10-11)16(12-4-1-2-5-14(12)20)22-17(24)18(25)23(15)9-3-8-21/h1-2,4-7,10,17,24H,3,9H2

>  <INCHI_KEY>  (1) 
XAXMYHMKTCNRRZ-UHFFFAOYSA-N

>  <JCHEM_ACCEPTOR_COUNT>  (1) 
4

>  <JCHEM_AVERAGE_POLARIZABILITY>  (1) 
34.11598730163477

>  <JCHEM_BIOAVAILABILITY>  (1) 
1

>  <JCHEM_DONOR_COUNT>  (1) 
1

>  <JCHEM_FORMAL_CHARGE>  (1) 
0

>  <JCHEM_GHOSE_FILTER>  (1) 
1

>  <JCHEM_IUPAC>  (1) 
3-[7-chloro-5-(2-fluorophenyl)-3-hydroxy-2-oxo-2,3-dihydro-1H-1,4-benzodiazepin-1-yl]propanenitrile

>  <JCHEM_LOGP>  (1) 
2.7029937280000005

>  <JCHEM_MDDR_LIKE_RULE>  (1) 
0

>  <JCHEM_NUMBER_OF_RINGS>  (1) 
3

>  <JCHEM_PHYSIOLOGICAL_CHARGE>  (1) 
0

>  <JCHEM_PKA_STRONGEST_ACIDIC>  (1) 
10.67521311333259

>  <JCHEM_PKA_STRONGEST_BASIC>  (1) 
-2.4871245413699277

>  <JCHEM_POLAR_SURFACE_AREA>  (1) 
76.69

>  <JCHEM_REFRACTIVITY>  (1) 
90.99000000000001

>  <JCHEM_ROTATABLE_BOND_COUNT>  (1) 
3

>  <JCHEM_RULE_OF_FIVE>  (1) 
1

>  <JCHEM_TRADITIONAL_IUPAC>  (1) 
cinolazepam

>  <JCHEM_VEBER_RULE>  (1) 
0

>  <MOLECULAR_WEIGHT>  (1) 
357.766

>  <SMILES>  (1) 
OC1N=C(C2=CC=CC=C2F)C2=C(C=CC(Cl)=C2)N(CCC#N)C1=O

>  <SYNONYMS>  (1) 
Cinolazepamum

$$$$
