1299
     RDKit          2D

 35 36  0  0  0  0  0  0  0  0999 V2000
    4.5080    0.7755    0.0000 S   0  0  0  0  0  0  0  0  0  0  0  0
    4.9205    0.0611    0.0000 O   0  0  0  0  0  0  0  0  0  0  0  0
    4.0955    1.4900    0.0000 O   0  0  0  0  0  0  0  0  0  0  0  0
    2.3645   -0.4620    0.0000 O   0  0  0  0  0  0  0  0  0  0  0  0
    2.3645   -2.1120    0.0000 O   0  0  0  0  0  0  0  0  0  0  0  0
    3.7935    0.3630    0.0000 N   0  0  0  0  0  0  0  0  0  0  0  0
    4.5080   -0.8745    0.0000 N   0  0  0  0  0  0  0  0  0  0  0  0
    7.3659    2.4256    0.0000 N   0  0  0  0  0  0  0  0  0  0  0  0
    3.7935   -2.1120    0.0000 N   0  0  0  0  0  0  0  0  0  0  0  0
    5.2224    1.1880    0.0000 C   0  0  0  0  0  0  0  0  0  0  0  0
    3.7935   -0.4620    0.0000 C   0  0  0  0  0  0  0  0  0  0  0  0
    5.9370    0.7755    0.0000 C   0  0  0  0  0  0  0  0  0  0  0  0
    5.2224    2.0130    0.0000 C   0  0  0  0  0  0  0  0  0  0  0  0
    3.0791   -0.8745    0.0000 C   0  0  0  0  0  0  0  0  0  0  0  0
    6.6515    1.1880    0.0000 C   0  0  0  0  0  0  0  0  0  0  0  0
    5.9370    2.4256    0.0000 C   0  0  0  0  0  0  0  0  0  0  0  0
    6.6515    2.0130    0.0000 C   0  0  0  0  0  0  0  0  0  0  0  0
    3.0791   -1.6995    0.0000 C   0  0  0  0  0  0  0  0  0  0  0  0
    4.5080   -1.6995    0.0000 C   0  0  0  0  0  0  0  0  0  0  0  0
    1.6500   -0.8745    0.0000 C   0  0  0  0  0  0  0  0  0  0  0  0
    2.3645   -2.9371    0.0000 C   0  0  0  0  0  0  0  0  0  0  0  0
    0.0000    0.0000    0.0000 H   0  0  0  0  0  0  0  0  0  0  0  0
    0.0000    0.0000    0.0000 H   0  0  0  0  0  0  0  0  0  0  0  0
    0.0000    0.0000    0.0000 H   0  0  0  0  0  0  0  0  0  0  0  0
    0.0000    0.0000    0.0000 H   0  0  0  0  0  0  0  0  0  0  0  0
    0.0000    0.0000    0.0000 H   0  0  0  0  0  0  0  0  0  0  0  0
    0.0000    0.0000    0.0000 H   0  0  0  0  0  0  0  0  0  0  0  0
    0.0000    0.0000    0.0000 H   0  0  0  0  0  0  0  0  0  0  0  0
    0.0000    0.0000    0.0000 H   0  0  0  0  0  0  0  0  0  0  0  0
    0.0000    0.0000    0.0000 H   0  0  0  0  0  0  0  0  0  0  0  0
    0.0000    0.0000    0.0000 H   0  0  0  0  0  0  0  0  0  0  0  0
    0.0000    0.0000    0.0000 H   0  0  0  0  0  0  0  0  0  0  0  0
    0.0000    0.0000    0.0000 H   0  0  0  0  0  0  0  0  0  0  0  0
    0.0000    0.0000    0.0000 H   0  0  0  0  0  0  0  0  0  0  0  0
    0.0000    0.0000    0.0000 H   0  0  0  0  0  0  0  0  0  0  0  0
  1  2  2  0
  1  3  2  0
  1  6  1  0
  1 10  1  0
  4 14  1  0
  4 20  1  0
  5 18  1  0
  5 21  1  0
  6 11  1  0
  7 11  2  0
  7 19  1  0
  8 17  1  0
  9 18  1  0
  9 19  2  0
 10 12  2  0
 10 13  1  0
 11 14  1  0
 12 15  1  0
 13 16  2  0
 14 18  2  0
 15 17  2  0
 16 17  1  0
  6 22  1  0
  8 23  1  0
  8 24  1  0
 12 25  1  0
 13 26  1  0
 15 27  1  0
 16 28  1  0
 19 29  1  0
 20 30  1  0
 20 31  1  0
 20 32  1  0
 21 33  1  0
 21 34  1  0
 21 35  1  0
M  END
>  <ALOGPS_LOGP>  (1) 
0.72

>  <ALOGPS_LOGS>  (1) 
-3.02

>  <ALOGPS_SOLUBILITY>  (1) 
2.96e-01 g/l

>  <DATABASE_ID>  (1) 
DB01299

>  <DATABASE_NAME>  (1) 
drugbank

>  <DRUGBANK_ID>  (1) 
DB01299

>  <DRUG_GROUPS>  (1) 
approved; investigational

>  <EXACT_MASS>  (1) 
310.073575646

>  <FORMULA>  (1) 
C12H14N4O4S

>  <GENERIC_NAME>  (1) 
Sulfadoxine

>  <INCHI_IDENTIFIER>  (1) 
InChI=1S/C12H14N4O4S/c1-19-10-11(14-7-15-12(10)20-2)16-21(17,18)9-5-3-8(13)4-6-9/h3-7H,13H2,1-2H3,(H,14,15,16)

>  <INCHI_KEY>  (1) 
PJSFRIWCGOHTNF-UHFFFAOYSA-N

>  <JCHEM_ACCEPTOR_COUNT>  (1) 
7

>  <JCHEM_AVERAGE_POLARIZABILITY>  (1) 
30.008576424631322

>  <JCHEM_BIOAVAILABILITY>  (1) 
1

>  <JCHEM_DONOR_COUNT>  (1) 
2

>  <JCHEM_FORMAL_CHARGE>  (1) 
0

>  <JCHEM_GHOSE_FILTER>  (1) 
1

>  <JCHEM_IUPAC>  (1) 
4-amino-N-(5,6-dimethoxypyrimidin-4-yl)benzene-1-sulfonamide

>  <JCHEM_LOGP>  (1) 
0.5820473146666669

>  <JCHEM_MDDR_LIKE_RULE>  (1) 
0

>  <JCHEM_NUMBER_OF_RINGS>  (1) 
2

>  <JCHEM_PHYSIOLOGICAL_CHARGE>  (1) 
-1

>  <JCHEM_PKA_STRONGEST_ACIDIC>  (1) 
6.116187571361608

>  <JCHEM_PKA_STRONGEST_BASIC>  (1) 
2.553081197758056

>  <JCHEM_POLAR_SURFACE_AREA>  (1) 
116.43

>  <JCHEM_REFRACTIVITY>  (1) 
77.8083

>  <JCHEM_ROTATABLE_BOND_COUNT>  (1) 
4

>  <JCHEM_RULE_OF_FIVE>  (1) 
1

>  <JCHEM_TRADITIONAL_IUPAC>  (1) 
sulfadoxine

>  <JCHEM_VEBER_RULE>  (1) 
0

>  <MOLECULAR_WEIGHT>  (1) 
310.329

>  <PRODUCTS>  (1) 
Fansidar Tablets

>  <SMILES>  (1) 
COC1=NC=NC(NS(=O)(=O)C2=CC=C(N)C=C2)=C1OC

$$$$
