1028
     RDKit          2D

 12 11  0  0  0  0  0  0  0  0999 V2000
    4.5080   -0.2615    0.0000 Cl  0  0  0  0  0  0  0  0  0  0  0  0
    3.7935    0.9760    0.0000 Cl  0  0  0  0  0  0  0  0  0  0  0  0
    2.6665    0.4529    0.0000 F   0  0  0  0  0  0  0  0  0  0  0  0
    3.4916   -0.9760    0.0000 F   0  0  0  0  0  0  0  0  0  0  0  0
    2.3645   -0.6740    0.0000 O   0  0  0  0  0  0  0  0  0  0  0  0
    3.0791   -0.2615    0.0000 C   0  0  0  0  0  0  0  0  0  0  0  0
    3.7935    0.1510    0.0000 C   0  0  0  0  0  0  0  0  0  0  0  0
    1.6500   -0.2615    0.0000 C   0  0  0  0  0  0  0  0  0  0  0  0
    0.0000    0.0000    0.0000 H   0  0  0  0  0  0  0  0  0  0  0  0
    0.0000    0.0000    0.0000 H   0  0  0  0  0  0  0  0  0  0  0  0
    0.0000    0.0000    0.0000 H   0  0  0  0  0  0  0  0  0  0  0  0
    0.0000    0.0000    0.0000 H   0  0  0  0  0  0  0  0  0  0  0  0
  1  7  1  0
  2  7  1  0
  3  6  1  0
  4  6  1  0
  5  6  1  0
  5  8  1  0
  6  7  1  0
  7  9  1  0
  8 10  1  0
  8 11  1  0
  8 12  1  0
M  END
>  <ALOGPS_LOGP>  (1) 
2.01

>  <ALOGPS_LOGS>  (1) 
-1.41

>  <ALOGPS_SOLUBILITY>  (1) 
6.46e+00 g/l

>  <DATABASE_ID>  (1) 
DB01028

>  <DATABASE_NAME>  (1) 
drugbank

>  <DRUGBANK_ID>  (1) 
DB01028

>  <DRUG_GROUPS>  (1) 
approved; investigational; vet_approved

>  <EXACT_MASS>  (1) 
163.960726574

>  <FORMULA>  (1) 
C3H4Cl2F2O

>  <GENERIC_NAME>  (1) 
Methoxyflurane

>  <INCHI_IDENTIFIER>  (1) 
InChI=1S/C3H4Cl2F2O/c1-8-3(6,7)2(4)5/h2H,1H3

>  <INCHI_KEY>  (1) 
RFKMCNOHBTXSMU-UHFFFAOYSA-N

>  <INTERNATIONAL_BRANDS>  (1) 
Penthrane

>  <JCHEM_ACCEPTOR_COUNT>  (1) 
1

>  <JCHEM_AVERAGE_POLARIZABILITY>  (1) 
11.460974551087322

>  <JCHEM_BIOAVAILABILITY>  (1) 
1

>  <JCHEM_DONOR_COUNT>  (1) 
0

>  <JCHEM_FORMAL_CHARGE>  (1) 
0

>  <JCHEM_GHOSE_FILTER>  (1) 
0

>  <JCHEM_IUPAC>  (1) 
2,2-dichloro-1,1-difluoro-1-methoxyethane

>  <JCHEM_LOGP>  (1) 
2.305878239333333

>  <JCHEM_MDDR_LIKE_RULE>  (1) 
0

>  <JCHEM_NUMBER_OF_RINGS>  (1) 
0

>  <JCHEM_PHYSIOLOGICAL_CHARGE>  (1) 
0

>  <JCHEM_PKA_STRONGEST_BASIC>  (1) 
-4.525713698322523

>  <JCHEM_POLAR_SURFACE_AREA>  (1) 
9.23

>  <JCHEM_REFRACTIVITY>  (1) 
27.974999999999998

>  <JCHEM_ROTATABLE_BOND_COUNT>  (1) 
2

>  <JCHEM_RULE_OF_FIVE>  (1) 
1

>  <JCHEM_TRADITIONAL_IUPAC>  (1) 
methoxyflurane

>  <JCHEM_VEBER_RULE>  (1) 
1

>  <MOLECULAR_WEIGHT>  (1) 
164.966

>  <SECONDARY_ACCESSION_NUMBERS>  (1) 
APRD00744

>  <SMILES>  (1) 
COC(F)(F)C(Cl)Cl

>  <SYNONYMS>  (1) 
Methoxyfluranum; Metoxiflurano

$$$$
