
     RDKit          2D

 75 77  0  0  1  0  0  0  0  0999 V2000
    5.3485  -12.3100    0.0000 C   0  0  0  0  0  0  0  0  0  0  0  0
    5.3485  -13.9599    0.0000 C   0  0  0  0  0  0  0  0  0  0  0  0
    6.8476  -13.8024    0.0000 C   0  0  0  0  0  0  0  0  0  0  0  0
    7.3325  -13.1350    0.0000 C   0  0  0  0  0  0  0  0  0  0  0  0
    4.6340  -12.7225    0.0000 C   0  0  0  0  0  0  0  0  0  0  0  0
    5.3485  -14.7849    0.0000 C   0  0  0  0  0  0  0  0  0  0  0  0
    4.6340  -13.5475    0.0000 C   0  0  0  0  0  0  0  0  0  0  0  0
    4.6340  -15.1974    0.0000 C   0  0  0  0  0  0  0  0  0  0  0  0
    4.6340  -16.0224    0.0000 C   0  0  0  0  0  0  0  0  0  0  0  0
    5.3485  -16.4349    0.0000 C   0  0  0  0  0  0  0  0  0  0  0  0
    3.9197  -16.4349    0.0000 C   0  0  0  0  0  0  0  0  0  0  0  0
    5.3485  -17.2599    0.0000 C   0  0  0  0  0  0  0  0  0  0  0  0
    3.9197  -17.2599    0.0000 C   0  0  0  0  0  0  0  0  0  0  0  0
    4.6340  -17.6724    0.0000 C   0  0  0  0  0  0  0  0  0  0  0  0
    6.1331  -11.2300    0.0000 C   0  0  0  0  0  0  0  0  0  0  0  0
    6.8476  -11.6425    0.0000 C   0  0  0  0  0  0  0  0  0  0  0  0
    7.5620  -11.2300    0.0000 C   0  0  0  0  0  0  0  0  0  0  0  0
    8.2764  -11.6425    0.0000 C   0  0  0  0  0  0  0  0  0  0  0  0
   10.4199  -11.2300    0.0000 C   0  0  0  0  0  0  0  0  0  0  0  0
    9.7054  -11.6425    0.0000 C   0  0  0  0  0  0  0  0  0  0  0  0
    9.7054  -12.4675    0.0000 C   0  0  0  0  0  0  0  0  0  0  0  0
    8.9909  -11.2300    0.0000 C   0  0  0  0  0  0  0  0  0  0  0  0
    6.8476  -12.4675    0.0000 C   0  0  0  0  0  0  0  0  0  0  0  0
    6.0630  -13.5475    0.0000 C   0  0  0  0  0  0  0  0  0  0  0  0
    6.0630  -12.7225    0.0000 C   0  0  0  0  0  0  0  0  0  0  0  0
    6.0630  -11.8975    0.0000 C   0  0  0  0  0  0  0  0  0  0  0  0
    8.9909  -10.4050    0.0000 C   0  0  0  0  0  0  0  0  0  0  0  0
    3.2051  -16.0224    0.0000 C   0  0  0  0  0  0  0  0  0  0  0  0
    6.0630  -17.6724    0.0000 O   0  0  0  0  0  0  0  0  0  0  0  0
    0.0000    0.0000    0.0000 H   0  0  0  0  0  0  0  0  0  0  0  0
    0.0000    0.0000    0.0000 H   0  0  0  0  0  0  0  0  0  0  0  0
    0.0000    0.0000    0.0000 H   0  0  0  0  0  0  0  0  0  0  0  0
    0.0000    0.0000    0.0000 H   0  0  0  0  0  0  0  0  0  0  0  0
    0.0000    0.0000    0.0000 H   0  0  0  0  0  0  0  0  0  0  0  0
    0.0000    0.0000    0.0000 H   0  0  0  0  0  0  0  0  0  0  0  0
    0.0000    0.0000    0.0000 H   0  0  0  0  0  0  0  0  0  0  0  0
    0.0000    0.0000    0.0000 H   0  0  0  0  0  0  0  0  0  0  0  0
    0.0000    0.0000    0.0000 H   0  0  0  0  0  0  0  0  0  0  0  0
    0.0000    0.0000    0.0000 H   0  0  0  0  0  0  0  0  0  0  0  0
    0.0000    0.0000    0.0000 H   0  0  0  0  0  0  0  0  0  0  0  0
    0.0000    0.0000    0.0000 H   0  0  0  0  0  0  0  0  0  0  0  0
    0.0000    0.0000    0.0000 H   0  0  0  0  0  0  0  0  0  0  0  0
    0.0000    0.0000    0.0000 H   0  0  0  0  0  0  0  0  0  0  0  0
    0.0000    0.0000    0.0000 H   0  0  0  0  0  0  0  0  0  0  0  0
    0.0000    0.0000    0.0000 H   0  0  0  0  0  0  0  0  0  0  0  0
    0.0000    0.0000    0.0000 H   0  0  0  0  0  0  0  0  0  0  0  0
    0.0000    0.0000    0.0000 H   0  0  0  0  0  0  0  0  0  0  0  0
    0.0000    0.0000    0.0000 H   0  0  0  0  0  0  0  0  0  0  0  0
    0.0000    0.0000    0.0000 H   0  0  0  0  0  0  0  0  0  0  0  0
    0.0000    0.0000    0.0000 H   0  0  0  0  0  0  0  0  0  0  0  0
    0.0000    0.0000    0.0000 H   0  0  0  0  0  0  0  0  0  0  0  0
    0.0000    0.0000    0.0000 H   0  0  0  0  0  0  0  0  0  0  0  0
    0.0000    0.0000    0.0000 H   0  0  0  0  0  0  0  0  0  0  0  0
    0.0000    0.0000    0.0000 H   0  0  0  0  0  0  0  0  0  0  0  0
    0.0000    0.0000    0.0000 H   0  0  0  0  0  0  0  0  0  0  0  0
    0.0000    0.0000    0.0000 H   0  0  0  0  0  0  0  0  0  0  0  0
    0.0000    0.0000    0.0000 H   0  0  0  0  0  0  0  0  0  0  0  0
    0.0000    0.0000    0.0000 H   0  0  0  0  0  0  0  0  0  0  0  0
    0.0000    0.0000    0.0000 H   0  0  0  0  0  0  0  0  0  0  0  0
    0.0000    0.0000    0.0000 H   0  0  0  0  0  0  0  0  0  0  0  0
    0.0000    0.0000    0.0000 H   0  0  0  0  0  0  0  0  0  0  0  0
    0.0000    0.0000    0.0000 H   0  0  0  0  0  0  0  0  0  0  0  0
    0.0000    0.0000    0.0000 H   0  0  0  0  0  0  0  0  0  0  0  0
    0.0000    0.0000    0.0000 H   0  0  0  0  0  0  0  0  0  0  0  0
    0.0000    0.0000    0.0000 H   0  0  0  0  0  0  0  0  0  0  0  0
    0.0000    0.0000    0.0000 H   0  0  0  0  0  0  0  0  0  0  0  0
    0.0000    0.0000    0.0000 H   0  0  0  0  0  0  0  0  0  0  0  0
    0.0000    0.0000    0.0000 H   0  0  0  0  0  0  0  0  0  0  0  0
    0.0000    0.0000    0.0000 H   0  0  0  0  0  0  0  0  0  0  0  0
    0.0000    0.0000    0.0000 H   0  0  0  0  0  0  0  0  0  0  0  0
    0.0000    0.0000    0.0000 H   0  0  0  0  0  0  0  0  0  0  0  0
    0.0000    0.0000    0.0000 H   0  0  0  0  0  0  0  0  0  0  0  0
    0.0000    0.0000    0.0000 H   0  0  0  0  0  0  0  0  0  0  0  0
    0.0000    0.0000    0.0000 H   0  0  0  0  0  0  0  0  0  0  0  0
    0.0000    0.0000    0.0000 H   0  0  0  0  0  0  0  0  0  0  0  0
 24 25  1  0
 25 23  1  0
 25  1  1  0
 24  2  1  0
 24  3  1  0
 23  4  1  0
  1  5  1  0
  2  6  2  0
  2  7  1  0
  6  8  1  0
  8  9  2  0
  9 10  1  0
  9 11  1  0
 10 12  1  0
 11 13  1  0
 12 14  1  0
  3  4  1  0
  5  7  1  0
 13 14  1  0
 23 16  1  0
 16 15  1  6
 16 17  1  0
 17 18  2  0
 22 18  1  6
 22 20  1  0
 20 19  1  0
 20 21  1  0
 25 26  1  1
 22 27  1  0
 11 28  1  6
 12 29  1  6
  1 30  1  0
  1 31  1  0
  3 32  1  0
  3 33  1  0
  4 34  1  0
  4 35  1  0
  5 36  1  0
  5 37  1  0
  6 38  1  0
  7 39  1  0
  7 40  1  0
  8 41  1  0
 10 42  1  0
 10 43  1  0
 11 44  1  0
 12 45  1  0
 13 46  1  0
 13 47  1  0
 14 48  1  0
 14 49  1  0
 15 50  1  0
 15 51  1  0
 15 52  1  0
 16 53  1  0
 17 54  1  0
 18 55  1  0
 19 56  1  0
 19 57  1  0
 19 58  1  0
 20 59  1  0
 21 60  1  0
 21 61  1  0
 21 62  1  0
 22 63  1  0
 23 64  1  6
 24 65  1  6
 26 66  1  0
 26 67  1  0
 26 68  1  0
 27 69  1  0
 27 70  1  0
 27 71  1  0
 28 72  1  0
 28 73  1  0
 28 74  1  0
 29 75  1  0
M  END
>  <ALOGPS_LOGP>  (1) 
7.86

>  <ALOGPS_LOGS>  (1) 
-6.50

>  <ALOGPS_SOLUBILITY>  (1) 
1.25e-04 g/l

>  <DATABASE_ID>  (1) 
DB01070

>  <DATABASE_NAME>  (1) 
drugbank

>  <DRUGBANK_ID>  (1) 
DB01070

>  <DRUG_GROUPS>  (1) 
approved

>  <EXACT_MASS>  (1) 
398.354866094

>  <FORMULA>  (1) 
C28H46O

>  <GENERIC_NAME>  (1) 
Dihydrotachysterol

>  <INCHI_IDENTIFIER>  (1) 
InChI=1S/C28H46O/c1-19(2)20(3)9-10-22(5)26-15-16-27-23(8-7-17-28(26,27)6)12-13-24-18-25(29)14-11-21(24)4/h9-10,12-13,19-22,25-27,29H,7-8,11,14-18H2,1-6H3/b10-9+,23-12+,24-13+/t20-,21-,22+,25-,26+,27-,28+/m0/s1

>  <INCHI_KEY>  (1) 
ILYCWAKSDCYMBB-OPCMSESCSA-N

>  <INTERNATIONAL_BRANDS>  (1) 
AT 10; Atiten; Dihydral; Dygratyl; Tachystin

>  <JCHEM_ACCEPTOR_COUNT>  (1) 
1

>  <JCHEM_AVERAGE_POLARIZABILITY>  (1) 
51.75864346638369

>  <JCHEM_BIOAVAILABILITY>  (1) 
1

>  <JCHEM_DONOR_COUNT>  (1) 
1

>  <JCHEM_FORMAL_CHARGE>  (1) 
0

>  <JCHEM_GHOSE_FILTER>  (1) 
0

>  <JCHEM_IUPAC>  (1) 
(1S,3E,4S)-3-{2-[(1R,3aS,4E,7aR)-1-[(2R,3E,5R)-5,6-dimethylhept-3-en-2-yl]-7a-methyl-octahydro-1H-inden-4-ylidene]ethylidene}-4-methylcyclohexan-1-ol

>  <JCHEM_LOGP>  (1) 
7.3982040053333336

>  <JCHEM_MDDR_LIKE_RULE>  (1) 
0

>  <JCHEM_NUMBER_OF_RINGS>  (1) 
3

>  <JCHEM_PHYSIOLOGICAL_CHARGE>  (1) 
0

>  <JCHEM_PKA_STRONGEST_ACIDIC>  (1) 
18.296174547011585

>  <JCHEM_PKA_STRONGEST_BASIC>  (1) 
-1.357053253137133

>  <JCHEM_POLAR_SURFACE_AREA>  (1) 
20.23

>  <JCHEM_REFRACTIVITY>  (1) 
129.11219999999997

>  <JCHEM_ROTATABLE_BOND_COUNT>  (1) 
5

>  <JCHEM_RULE_OF_FIVE>  (1) 
0

>  <JCHEM_TRADITIONAL_IUPAC>  (1) 
dihydrotachysterol

>  <JCHEM_VEBER_RULE>  (1) 
1

>  <MOLECULAR_WEIGHT>  (1) 
398.6642

>  <PRODUCTS>  (1) 
Hytakerol

>  <SECONDARY_ACCESSION_NUMBERS>  (1) 
APRD00143

>  <SMILES>  (1) 
CC(C)[C@@H](C)\C=C\[C@@H](C)[C@@]1([H])CC[C@@]2([H])\C(CCC[C@]12C)=C\C=C1/C[C@@H](O)CC[C@@H]1C

>  <SYNONYMS>  (1) 
Anti-tetany substance 10; Dihidrotaquisterol; Dihydrotachysterolum

$$$$
