
     RDKit          2D

101106  0  0  0  0  0  0  0  0999 V2000
    1.3066   -0.3186    0.0000 C   0  0  0  0  0  0  0  0  0  0  0  0
    0.5985   -0.7259    0.0000 C   0  0  0  0  0  0  0  0  0  0  0  0
    1.3173    0.5029    0.0000 C   0  0  0  0  0  0  0  0  0  0  0  0
    2.7337   -0.3364    0.0000 C   0  0  0  0  0  0  0  0  0  0  0  0
   -0.1133   -0.3081    0.0000 C   0  0  0  0  0  0  0  0  0  0  0  0
    0.5985   -1.5509    0.0000 C   0  0  0  0  0  0  0  0  0  0  0  0
    2.0361    0.9065    0.0000 C   0  0  0  0  0  0  0  0  0  0  0  0
    0.6126    0.9242    0.0000 C   0  0  0  0  0  0  0  0  0  0  0  0
    1.3350    1.2889    0.0000 C   0  0  0  0  0  0  0  0  0  0  0  0
    2.7442    0.4851    0.0000 C   0  0  0  0  0  0  0  0  0  0  0  0
   -0.8321   -0.7153    0.0000 C   0  0  0  0  0  0  0  0  0  0  0  0
   -0.1062    0.5134    0.0000 C   0  0  0  0  0  0  0  0  0  0  0  0
   -0.1204   -1.9617    0.0000 C   0  0  0  0  0  0  0  0  0  0  0  0
    2.0856    1.8271    0.0000 O   0  0  0  0  0  0  0  0  0  0  0  0
    3.4631    0.8924    0.0000 N   0  0  0  0  0  0  0  0  0  0  0  0
   -0.8357   -1.5474    0.0000 C   0  0  0  0  0  0  0  0  0  0  0  0
   -1.5474   -0.3046    0.0000 C   0  0  0  0  0  0  0  0  0  0  0  0
   -0.7968    0.0779    0.0000 C   0  0  0  0  0  0  0  0  0  0  0  0
    1.3739    2.2521    0.0000 C   0  0  0  0  0  0  0  0  0  0  0  0
    4.1713    0.4674    0.0000 C   0  0  0  0  0  0  0  0  0  0  0  0
    3.4702    1.7139    0.0000 C   0  0  0  0  0  0  0  0  0  0  0  0
    3.4667   -0.0885    0.0000 C   0  0  0  0  0  0  0  0  0  0  0  0
   -1.5474   -1.9582    0.0000 C   0  0  0  0  0  0  0  0  0  0  0  0
   -2.2591   -0.7153    0.0000 C   0  0  0  0  0  0  0  0  0  0  0  0
    0.6516    1.8449    0.0000 C   0  0  0  0  0  0  0  0  0  0  0  0
    1.3846    3.0772    0.0000 O   0  0  0  0  0  0  0  0  0  0  0  0
    4.8901    0.8711    0.0000 C   0  0  0  0  0  0  0  0  0  0  0  0
    4.1890    2.1210    0.0000 C   0  0  0  0  0  0  0  0  0  0  0  0
   -2.2591   -1.5474    0.0000 C   0  0  0  0  0  0  0  0  0  0  0  0
   -3.0630   -0.1806    0.0000 N   0  0  0  0  0  0  0  0  0  0  0  0
    4.9007    1.6961    0.0000 C   0  0  0  0  0  0  0  0  0  0  0  0
   -2.9780   -1.9582    0.0000 O   0  0  0  0  0  0  0  0  0  0  0  0
   -3.0594    0.6409    0.0000 C   0  0  0  0  0  0  0  0  0  0  0  0
   -3.7747   -0.5949    0.0000 C   0  0  0  0  0  0  0  0  0  0  0  0
   -2.3017    0.4108    0.0000 C   0  0  0  0  0  0  0  0  0  0  0  0
   -2.9780   -2.7832    0.0000 C   0  0  0  0  0  0  0  0  0  0  0  0
   -3.7747    1.0552    0.0000 C   0  0  0  0  0  0  0  0  0  0  0  0
   -4.4900   -0.1841    0.0000 C   0  0  0  0  0  0  0  0  0  0  0  0
   -3.6933   -3.1975    0.0000 C   0  0  0  0  0  0  0  0  0  0  0  0
   -2.2591   -3.1975    0.0000 O   0  0  0  0  0  0  0  0  0  0  0  0
   -4.4865    0.6409    0.0000 C   0  0  0  0  0  0  0  0  0  0  0  0
    0.0000    0.0000    0.0000 H   0  0  0  0  0  0  0  0  0  0  0  0
    0.0000    0.0000    0.0000 H   0  0  0  0  0  0  0  0  0  0  0  0
    0.0000    0.0000    0.0000 H   0  0  0  0  0  0  0  0  0  0  0  0
    0.0000    0.0000    0.0000 H   0  0  0  0  0  0  0  0  0  0  0  0
    0.0000    0.0000    0.0000 H   0  0  0  0  0  0  0  0  0  0  0  0
    0.0000    0.0000    0.0000 H   0  0  0  0  0  0  0  0  0  0  0  0
    0.0000    0.0000    0.0000 H   0  0  0  0  0  0  0  0  0  0  0  0
    0.0000    0.0000    0.0000 H   0  0  0  0  0  0  0  0  0  0  0  0
    0.0000    0.0000    0.0000 H   0  0  0  0  0  0  0  0  0  0  0  0
    0.0000    0.0000    0.0000 H   0  0  0  0  0  0  0  0  0  0  0  0
    0.0000    0.0000    0.0000 H   0  0  0  0  0  0  0  0  0  0  0  0
    0.0000    0.0000    0.0000 H   0  0  0  0  0  0  0  0  0  0  0  0
    0.0000    0.0000    0.0000 H   0  0  0  0  0  0  0  0  0  0  0  0
    0.0000    0.0000    0.0000 H   0  0  0  0  0  0  0  0  0  0  0  0
    0.0000    0.0000    0.0000 H   0  0  0  0  0  0  0  0  0  0  0  0
    0.0000    0.0000    0.0000 H   0  0  0  0  0  0  0  0  0  0  0  0
    0.0000    0.0000    0.0000 H   0  0  0  0  0  0  0  0  0  0  0  0
    0.0000    0.0000    0.0000 H   0  0  0  0  0  0  0  0  0  0  0  0
    0.0000    0.0000    0.0000 H   0  0  0  0  0  0  0  0  0  0  0  0
    0.0000    0.0000    0.0000 H   0  0  0  0  0  0  0  0  0  0  0  0
    0.0000    0.0000    0.0000 H   0  0  0  0  0  0  0  0  0  0  0  0
    0.0000    0.0000    0.0000 H   0  0  0  0  0  0  0  0  0  0  0  0
    0.0000    0.0000    0.0000 H   0  0  0  0  0  0  0  0  0  0  0  0
    0.0000    0.0000    0.0000 H   0  0  0  0  0  0  0  0  0  0  0  0
    0.0000    0.0000    0.0000 H   0  0  0  0  0  0  0  0  0  0  0  0
    0.0000    0.0000    0.0000 H   0  0  0  0  0  0  0  0  0  0  0  0
    0.0000    0.0000    0.0000 H   0  0  0  0  0  0  0  0  0  0  0  0
    0.0000    0.0000    0.0000 H   0  0  0  0  0  0  0  0  0  0  0  0
    0.0000    0.0000    0.0000 H   0  0  0  0  0  0  0  0  0  0  0  0
    0.0000    0.0000    0.0000 H   0  0  0  0  0  0  0  0  0  0  0  0
    0.0000    0.0000    0.0000 H   0  0  0  0  0  0  0  0  0  0  0  0
    0.0000    0.0000    0.0000 H   0  0  0  0  0  0  0  0  0  0  0  0
    0.0000    0.0000    0.0000 H   0  0  0  0  0  0  0  0  0  0  0  0
    0.0000    0.0000    0.0000 H   0  0  0  0  0  0  0  0  0  0  0  0
    0.0000    0.0000    0.0000 H   0  0  0  0  0  0  0  0  0  0  0  0
    0.0000    0.0000    0.0000 H   0  0  0  0  0  0  0  0  0  0  0  0
    0.0000    0.0000    0.0000 H   0  0  0  0  0  0  0  0  0  0  0  0
    0.0000    0.0000    0.0000 H   0  0  0  0  0  0  0  0  0  0  0  0
    0.0000    0.0000    0.0000 H   0  0  0  0  0  0  0  0  0  0  0  0
    0.0000    0.0000    0.0000 H   0  0  0  0  0  0  0  0  0  0  0  0
    0.0000    0.0000    0.0000 H   0  0  0  0  0  0  0  0  0  0  0  0
    0.0000    0.0000    0.0000 H   0  0  0  0  0  0  0  0  0  0  0  0
    0.0000    0.0000    0.0000 H   0  0  0  0  0  0  0  0  0  0  0  0
    0.0000    0.0000    0.0000 H   0  0  0  0  0  0  0  0  0  0  0  0
    0.0000    0.0000    0.0000 H   0  0  0  0  0  0  0  0  0  0  0  0
    0.0000    0.0000    0.0000 H   0  0  0  0  0  0  0  0  0  0  0  0
    0.0000    0.0000    0.0000 H   0  0  0  0  0  0  0  0  0  0  0  0
    0.0000    0.0000    0.0000 H   0  0  0  0  0  0  0  0  0  0  0  0
    0.0000    0.0000    0.0000 H   0  0  0  0  0  0  0  0  0  0  0  0
    0.0000    0.0000    0.0000 H   0  0  0  0  0  0  0  0  0  0  0  0
    0.0000    0.0000    0.0000 H   0  0  0  0  0  0  0  0  0  0  0  0
    0.0000    0.0000    0.0000 H   0  0  0  0  0  0  0  0  0  0  0  0
    0.0000    0.0000    0.0000 H   0  0  0  0  0  0  0  0  0  0  0  0
    0.0000    0.0000    0.0000 H   0  0  0  0  0  0  0  0  0  0  0  0
    0.0000    0.0000    0.0000 H   0  0  0  0  0  0  0  0  0  0  0  0
    0.0000    0.0000    0.0000 H   0  0  0  0  0  0  0  0  0  0  0  0
    0.0000    0.0000    0.0000 H   0  0  0  0  0  0  0  0  0  0  0  0
    0.0000    0.0000    0.0000 H   0  0  0  0  0  0  0  0  0  0  0  0
    0.0000    0.0000    0.0000 H   0  0  0  0  0  0  0  0  0  0  0  0
    0.0000    0.0000    0.0000 H   0  0  0  0  0  0  0  0  0  0  0  0
  1  2  1  0
  1  3  1  0
  1  4  1  0
  2  5  1  0
  2  6  1  0
  3  7  1  0
  3  8  1  0
  3  9  1  1
  4 10  1  0
  5 11  1  0
  5 12  1  0
  6 13  1  0
  7 14  1  1
 10 15  1  6
 11 16  1  0
 11 17  1  0
 11 18  1  1
 14 19  1  0
 15 20  1  0
 15 21  1  0
 15 22  1  0
 16 23  1  0
 17 24  1  0
 19 25  1  0
 19 26  2  0
 20 27  1  0
 21 28  1  0
 23 29  1  0
 24 30  1  6
 27 31  1  0
 29 32  1  1
 30 33  1  0
 30 34  1  0
 30 35  1  0
 32 36  1  0
 33 37  1  0
 34 38  1  0
 36 39  1  0
 36 40  2  0
 37 41  1  0
  7 10  1  0
  8 12  1  0
 13 16  1  0
 24 29  1  0
 28 31  1  0
 38 41  1  0
  1 42  1  6
  2 43  1  1
  4 44  1  0
  4 45  1  0
  5 46  1  6
  6 47  1  0
  6 48  1  0
  7 49  1  0
  8 50  1  0
  8 51  1  0
  9 52  1  0
  9 53  1  0
  9 54  1  0
 10 55  1  0
 12 56  1  0
 12 57  1  0
 13 58  1  0
 13 59  1  0
 16 60  1  6
 17 61  1  0
 17 62  1  0
 18 63  1  0
 18 64  1  0
 18 65  1  0
 20 66  1  0
 20 67  1  0
 21 68  1  0
 21 69  1  0
 22 70  1  0
 22 71  1  0
 22 72  1  0
 23 73  1  0
 23 74  1  0
 24 75  1  0
 25 76  1  0
 25 77  1  0
 25 78  1  0
 27 79  1  0
 27 80  1  0
 28 81  1  0
 28 82  1  0
 29 83  1  0
 31 84  1  0
 31 85  1  0
 33 86  1  0
 33 87  1  0
 34 88  1  0
 34 89  1  0
 35 90  1  0
 35 91  1  0
 35 92  1  0
 37 93  1  0
 37 94  1  0
 38 95  1  0
 38 96  1  0
 39 97  1  0
 39 98  1  0
 39 99  1  0
 41100  1  0
 41101  1  0
M  CHG  2  15   1  30   1
M  END
>  <ALOGPS_LOGP>  (1) 
1.04

>  <ALOGPS_LOGS>  (1) 
-8.32

>  <ALOGPS_SOLUBILITY>  (1) 
3.08e-06 g/l

>  <DATABASE_ID>  (1) 
DB01337

>  <DATABASE_NAME>  (1) 
drugbank

>  <DRUGBANK_ID>  (1) 
DB01337

>  <DRUG_GROUPS>  (1) 
approved

>  <EXACT_MASS>  (1) 
572.455308418

>  <FORMULA>  (1) 
C35H60N2O4

>  <GENERIC_NAME>  (1) 
Pancuronium

>  <INCHI_IDENTIFIER>  (1) 
InChI=1S/C35H60N2O4/c1-24(38)40-32-21-26-13-14-27-28(35(26,4)23-31(32)37(6)19-11-8-12-20-37)15-16-34(3)29(27)22-30(33(34)41-25(2)39)36(5)17-9-7-10-18-36/h26-33H,7-23H2,1-6H3/q+2/t26-,27+,28-,29-,30-,31-,32-,33-,34-,35-/m0/s1

>  <INCHI_KEY>  (1) 
GVEAYVLWDAFXET-XGHATYIMSA-N

>  <INTERNATIONAL_BRANDS>  (1) 
Mioblock; Pavulon

>  <JCHEM_ACCEPTOR_COUNT>  (1) 
2

>  <JCHEM_AVERAGE_POLARIZABILITY>  (1) 
69.43855177415892

>  <JCHEM_BIOAVAILABILITY>  (1) 
1

>  <JCHEM_DONOR_COUNT>  (1) 
0

>  <JCHEM_FORMAL_CHARGE>  (1) 
2

>  <JCHEM_GHOSE_FILTER>  (1) 
0

>  <JCHEM_IUPAC>  (1) 
1-[(1S,2S,4S,5S,7S,10R,11S,13S,14R,15S)-5,14-bis(acetyloxy)-2,15-dimethyl-13-(1-methylpiperidin-1-ium-1-yl)tetracyclo[8.7.0.0²,⁷.0¹¹,¹⁵]heptadecan-4-yl]-1-methylpiperidin-1-ium

>  <JCHEM_LOGP>  (1) 
-3.2702474632768244

>  <JCHEM_MDDR_LIKE_RULE>  (1) 
1

>  <JCHEM_NUMBER_OF_RINGS>  (1) 
6

>  <JCHEM_PHYSIOLOGICAL_CHARGE>  (1) 
2

>  <JCHEM_PKA_STRONGEST_BASIC>  (1) 
-6.717408202028832

>  <JCHEM_POLAR_SURFACE_AREA>  (1) 
52.6

>  <JCHEM_REFRACTIVITY>  (1) 
185.22199999999995

>  <JCHEM_ROTATABLE_BOND_COUNT>  (1) 
6

>  <JCHEM_RULE_OF_FIVE>  (1) 
0

>  <JCHEM_TRADITIONAL_IUPAC>  (1) 
pancuronium

>  <JCHEM_VEBER_RULE>  (1) 
0

>  <MOLECULAR_WEIGHT>  (1) 
572.8619

>  <PRODUCTS>  (1) 
Pancuronium Bromide; Pancuronium Bromide - Liq IV 1mg/ml; Pancuronium Bromide - Liq IV 2mg/ml; Pancuronium Bromide 1mg/ml; Pancuronium Bromide 2mg/ml; Pavulon Inj 1mg/ml; Pavulon Inj 2mg/ml

>  <SALTS>  (1) 
Pancuronium bromide

>  <SMILES>  (1) 
[H][C@@]12C[C@@H]([C@H](OC(C)=O)[C@@]1(C)CC[C@@]1([H])[C@@]2([H])CC[C@@]2([H])C[C@H](OC(C)=O)[C@H](C[C@]12C)[N+]1(C)CCCCC1)[N+]1(C)CCCCC1

>  <SYNONYMS>  (1) 
Bromure de pancuronium; Bromuro de pancuronio

$$$$
