1396
     RDKit          2D

118125  0  0  1  0  0  0  0  0999 V2000
   15.1106   -1.2857    0.0000 O   0  0  0  0  0  0  0  0  0  0  0  0
   10.6613   -2.1538    0.0000 O   0  0  0  0  0  0  0  0  0  0  0  0
   16.1499    2.7348    0.0000 O   0  0  0  0  0  0  0  0  0  0  0  0
    9.9516   -0.9136    0.0000 O   0  0  0  0  0  0  0  0  0  0  0  0
   17.6024    2.9624    0.0000 O   0  0  0  0  0  0  0  0  0  0  0  0
    7.8034   -2.1428    0.0000 O   0  0  0  0  0  0  0  0  0  0  0  0
    7.8098   -0.4928    0.0000 O   0  0  0  0  0  0  0  0  0  0  0  0
    7.0905   -1.7276    0.0000 O   0  0  0  0  0  0  0  0  0  0  0  0
    4.9455   -2.1318    0.0000 O   0  0  0  0  0  0  0  0  0  0  0  0
    4.9519   -0.4818    0.0000 O   0  0  0  0  0  0  0  0  0  0  0  0
    3.5166   -2.1263    0.0000 O   0  0  0  0  0  0  0  0  0  0  0  0
    3.5261    0.3487    0.0000 O   0  0  0  0  0  0  0  0  0  0  0  0
    2.0940   -0.4707    0.0000 O   0  0  0  0  0  0  0  0  0  0  0  0
   15.1106   -0.4607    0.0000 C   0  0  0  0  0  0  0  0  0  0  0  0
   14.3961   -0.8732    0.0000 C   0  0  0  0  0  0  0  0  0  0  0  0
   13.6817   -0.4607    0.0000 C   0  0  0  0  0  0  0  0  0  0  0  0
   15.1106    0.3643    0.0000 C   0  0  0  0  0  0  0  0  0  0  0  0
   12.9309   -0.8788    0.0000 C   0  0  0  0  0  0  0  0  0  0  0  0
   12.9243   -1.7381    0.0000 C   0  0  0  0  0  0  0  0  0  0  0  0
   13.6817    0.3643    0.0000 C   0  0  0  0  0  0  0  0  0  0  0  0
   14.3961    0.7768    0.0000 C   0  0  0  0  0  0  0  0  0  0  0  0
   15.8912    0.6158    0.0000 C   0  0  0  0  0  0  0  0  0  0  0  0
   14.4094   -1.7324    0.0000 C   0  0  0  0  0  0  0  0  0  0  0  0
   15.8912   -0.7121    0.0000 C   0  0  0  0  0  0  0  0  0  0  0  0
   13.6685   -2.1678    0.0000 C   0  0  0  0  0  0  0  0  0  0  0  0
   16.3728   -0.0482    0.0000 C   0  0  0  0  0  0  0  0  0  0  0  0
   12.1662   -0.4134    0.0000 C   0  0  0  0  0  0  0  0  0  0  0  0
   12.1525   -2.1916    0.0000 C   0  0  0  0  0  0  0  0  0  0  0  0
   15.1106    1.1893    0.0000 C   0  0  0  0  0  0  0  0  0  0  0  0
   12.9373   -0.0538    0.0000 C   0  0  0  0  0  0  0  0  0  0  0  0
   11.3843   -0.8490    0.0000 C   0  0  0  0  0  0  0  0  0  0  0  0
   11.3774   -1.7441    0.0000 C   0  0  0  0  0  0  0  0  0  0  0  0
   16.1476    1.4000    0.0000 C   0  0  0  0  0  0  0  0  0  0  0  0
   15.6638    2.0682    0.0000 C   0  0  0  0  0  0  0  0  0  0  0  0
   16.9326    1.6536    0.0000 C   0  0  0  0  0  0  0  0  0  0  0  0
    9.9484   -1.7386    0.0000 C   0  0  0  0  0  0  0  0  0  0  0  0
   16.9340    2.4786    0.0000 C   0  0  0  0  0  0  0  0  0  0  0  0
    9.2323   -2.1483    0.0000 C   0  0  0  0  0  0  0  0  0  0  0  0
    8.5194   -1.7331    0.0000 C   0  0  0  0  0  0  0  0  0  0  0  0
    9.2387   -0.4983    0.0000 C   0  0  0  0  0  0  0  0  0  0  0  0
    8.5227   -0.9081    0.0000 C   0  0  0  0  0  0  0  0  0  0  0  0
    9.2419    0.3267    0.0000 C   0  0  0  0  0  0  0  0  0  0  0  0
    7.0937   -0.9026    0.0000 C   0  0  0  0  0  0  0  0  0  0  0  0
    6.3808   -0.4873    0.0000 C   0  0  0  0  0  0  0  0  0  0  0  0
    5.6648   -0.8970    0.0000 C   0  0  0  0  0  0  0  0  0  0  0  0
    6.3744   -2.1373    0.0000 C   0  0  0  0  0  0  0  0  0  0  0  0
    5.6615   -1.7220    0.0000 C   0  0  0  0  0  0  0  0  0  0  0  0
    6.3713   -2.9624    0.0000 C   0  0  0  0  0  0  0  0  0  0  0  0
    4.2326   -1.7165    0.0000 C   0  0  0  0  0  0  0  0  0  0  0  0
    4.2358   -0.8916    0.0000 C   0  0  0  0  0  0  0  0  0  0  0  0
    3.5230   -0.4763    0.0000 C   0  0  0  0  0  0  0  0  0  0  0  0
    2.8037   -1.7111    0.0000 C   0  0  0  0  0  0  0  0  0  0  0  0
    2.8068   -0.8861    0.0000 C   0  0  0  0  0  0  0  0  0  0  0  0
    2.0876   -2.1208    0.0000 C   0  0  0  0  0  0  0  0  0  0  0  0
    0.0000    0.0000    0.0000 H   0  0  0  0  0  0  0  0  0  0  0  0
    0.0000    0.0000    0.0000 H   0  0  0  0  0  0  0  0  0  0  0  0
    0.0000    0.0000    0.0000 H   0  0  0  0  0  0  0  0  0  0  0  0
    0.0000    0.0000    0.0000 H   0  0  0  0  0  0  0  0  0  0  0  0
    0.0000    0.0000    0.0000 H   0  0  0  0  0  0  0  0  0  0  0  0
    0.0000    0.0000    0.0000 H   0  0  0  0  0  0  0  0  0  0  0  0
    0.0000    0.0000    0.0000 H   0  0  0  0  0  0  0  0  0  0  0  0
    0.0000    0.0000    0.0000 H   0  0  0  0  0  0  0  0  0  0  0  0
    0.0000    0.0000    0.0000 H   0  0  0  0  0  0  0  0  0  0  0  0
    0.0000    0.0000    0.0000 H   0  0  0  0  0  0  0  0  0  0  0  0
    0.0000    0.0000    0.0000 H   0  0  0  0  0  0  0  0  0  0  0  0
    0.0000    0.0000    0.0000 H   0  0  0  0  0  0  0  0  0  0  0  0
    0.0000    0.0000    0.0000 H   0  0  0  0  0  0  0  0  0  0  0  0
    0.0000    0.0000    0.0000 H   0  0  0  0  0  0  0  0  0  0  0  0
    0.0000    0.0000    0.0000 H   0  0  0  0  0  0  0  0  0  0  0  0
    0.0000    0.0000    0.0000 H   0  0  0  0  0  0  0  0  0  0  0  0
    0.0000    0.0000    0.0000 H   0  0  0  0  0  0  0  0  0  0  0  0
    0.0000    0.0000    0.0000 H   0  0  0  0  0  0  0  0  0  0  0  0
    0.0000    0.0000    0.0000 H   0  0  0  0  0  0  0  0  0  0  0  0
    0.0000    0.0000    0.0000 H   0  0  0  0  0  0  0  0  0  0  0  0
    0.0000    0.0000    0.0000 H   0  0  0  0  0  0  0  0  0  0  0  0
    0.0000    0.0000    0.0000 H   0  0  0  0  0  0  0  0  0  0  0  0
    0.0000    0.0000    0.0000 H   0  0  0  0  0  0  0  0  0  0  0  0
    0.0000    0.0000    0.0000 H   0  0  0  0  0  0  0  0  0  0  0  0
    0.0000    0.0000    0.0000 H   0  0  0  0  0  0  0  0  0  0  0  0
    0.0000    0.0000    0.0000 H   0  0  0  0  0  0  0  0  0  0  0  0
    0.0000    0.0000    0.0000 H   0  0  0  0  0  0  0  0  0  0  0  0
    0.0000    0.0000    0.0000 H   0  0  0  0  0  0  0  0  0  0  0  0
    0.0000    0.0000    0.0000 H   0  0  0  0  0  0  0  0  0  0  0  0
    0.0000    0.0000    0.0000 H   0  0  0  0  0  0  0  0  0  0  0  0
    0.0000    0.0000    0.0000 H   0  0  0  0  0  0  0  0  0  0  0  0
    0.0000    0.0000    0.0000 H   0  0  0  0  0  0  0  0  0  0  0  0
    0.0000    0.0000    0.0000 H   0  0  0  0  0  0  0  0  0  0  0  0
    0.0000    0.0000    0.0000 H   0  0  0  0  0  0  0  0  0  0  0  0
    0.0000    0.0000    0.0000 H   0  0  0  0  0  0  0  0  0  0  0  0
    0.0000    0.0000    0.0000 H   0  0  0  0  0  0  0  0  0  0  0  0
    0.0000    0.0000    0.0000 H   0  0  0  0  0  0  0  0  0  0  0  0
    0.0000    0.0000    0.0000 H   0  0  0  0  0  0  0  0  0  0  0  0
    0.0000    0.0000    0.0000 H   0  0  0  0  0  0  0  0  0  0  0  0
    0.0000    0.0000    0.0000 H   0  0  0  0  0  0  0  0  0  0  0  0
    0.0000    0.0000    0.0000 H   0  0  0  0  0  0  0  0  0  0  0  0
    0.0000    0.0000    0.0000 H   0  0  0  0  0  0  0  0  0  0  0  0
    0.0000    0.0000    0.0000 H   0  0  0  0  0  0  0  0  0  0  0  0
    0.0000    0.0000    0.0000 H   0  0  0  0  0  0  0  0  0  0  0  0
    0.0000    0.0000    0.0000 H   0  0  0  0  0  0  0  0  0  0  0  0
    0.0000    0.0000    0.0000 H   0  0  0  0  0  0  0  0  0  0  0  0
    0.0000    0.0000    0.0000 H   0  0  0  0  0  0  0  0  0  0  0  0
    0.0000    0.0000    0.0000 H   0  0  0  0  0  0  0  0  0  0  0  0
    0.0000    0.0000    0.0000 H   0  0  0  0  0  0  0  0  0  0  0  0
    0.0000    0.0000    0.0000 H   0  0  0  0  0  0  0  0  0  0  0  0
    0.0000    0.0000    0.0000 H   0  0  0  0  0  0  0  0  0  0  0  0
    0.0000    0.0000    0.0000 H   0  0  0  0  0  0  0  0  0  0  0  0
    0.0000    0.0000    0.0000 H   0  0  0  0  0  0  0  0  0  0  0  0
    0.0000    0.0000    0.0000 H   0  0  0  0  0  0  0  0  0  0  0  0
    0.0000    0.0000    0.0000 H   0  0  0  0  0  0  0  0  0  0  0  0
    0.0000    0.0000    0.0000 H   0  0  0  0  0  0  0  0  0  0  0  0
    0.0000    0.0000    0.0000 H   0  0  0  0  0  0  0  0  0  0  0  0
    0.0000    0.0000    0.0000 H   0  0  0  0  0  0  0  0  0  0  0  0
    0.0000    0.0000    0.0000 H   0  0  0  0  0  0  0  0  0  0  0  0
    0.0000    0.0000    0.0000 H   0  0  0  0  0  0  0  0  0  0  0  0
    0.0000    0.0000    0.0000 H   0  0  0  0  0  0  0  0  0  0  0  0
    0.0000    0.0000    0.0000 H   0  0  0  0  0  0  0  0  0  0  0  0
    0.0000    0.0000    0.0000 H   0  0  0  0  0  0  0  0  0  0  0  0
    0.0000    0.0000    0.0000 H   0  0  0  0  0  0  0  0  0  0  0  0
 14  1  1  1
 32  2  1  1
 36  2  1  6
  3 34  1  0
  3 37  1  0
  4 36  1  0
  4 40  1  0
  5 37  2  0
 39  6  1  6
 41  7  1  6
 43  7  1  1
  8 43  1  0
  8 46  1  0
 47  9  1  1
 49  9  1  1
 45 10  1  1
 11 49  1  0
 11 52  1  0
 51 12  1  1
 53 13  1  1
 14 15  1  0
 14 17  1  0
 14 24  1  0
 15 16  1  0
 15 23  1  0
 16 18  1  0
 16 20  1  0
 17 21  1  0
 17 22  1  0
 17 29  1  1
 18 19  1  0
 18 27  1  0
 18 30  1  1
 19 25  1  0
 19 28  1  0
 20 21  1  0
 22 26  1  0
 22 33  1  1
 23 25  1  0
 24 26  1  0
 27 31  1  0
 28 32  1  0
 31 32  1  0
 33 34  1  0
 33 35  2  0
 35 37  1  0
 36 38  1  0
 38 39  1  0
 39 41  1  0
 40 41  1  0
 40 42  1  1
 43 44  1  0
 44 45  1  0
 45 47  1  0
 46 47  1  0
 46 48  1  6
 49 50  1  0
 50 51  1  0
 51 53  1  0
 52 53  1  0
 52 54  1  6
  1 55  1  0
  6 56  1  0
 10 57  1  0
 12 58  1  0
 13 59  1  0
 15 60  1  1
 16 61  1  6
 19 62  1  1
 20 63  1  0
 20 64  1  0
 21 65  1  0
 21 66  1  0
 22 67  1  0
 23 68  1  0
 23 69  1  0
 24 70  1  0
 24 71  1  0
 25 72  1  0
 25 73  1  0
 26 74  1  0
 26 75  1  0
 27 76  1  0
 27 77  1  0
 28 78  1  0
 28 79  1  0
 29 80  1  0
 29 81  1  0
 29 82  1  0
 30 83  1  0
 30 84  1  0
 30 85  1  0
 31 86  1  0
 31 87  1  0
 32 88  1  0
 34 89  1  0
 34 90  1  0
 35 91  1  0
 36 92  1  0
 38 93  1  0
 38 94  1  0
 39 95  1  0
 40 96  1  0
 41 97  1  0
 42 98  1  0
 42 99  1  0
 42100  1  0
 43101  1  0
 44102  1  0
 44103  1  0
 45104  1  0
 46105  1  0
 47106  1  0
 48107  1  0
 48108  1  0
 48109  1  0
 49110  1  0
 50111  1  0
 50112  1  0
 51113  1  0
 52114  1  0
 53115  1  0
 54116  1  0
 54117  1  0
 54118  1  0
M  END
>  <ALOGPS_LOGP>  (1) 
2.33

>  <ALOGPS_LOGS>  (1) 
-4.42

>  <ALOGPS_SOLUBILITY>  (1) 
2.89e-02 g/l

>  <DATABASE_ID>  (1) 
DB01396

>  <DATABASE_NAME>  (1) 
drugbank

>  <DRUGBANK_ID>  (1) 
DB01396

>  <DRUG_GROUPS>  (1) 
approved; investigational

>  <EXACT_MASS>  (1) 
764.434692134

>  <FORMULA>  (1) 
C41H64O13

>  <GENERIC_NAME>  (1) 
Digitoxin

>  <INCHI_IDENTIFIER>  (1) 
InChI=1S/C41H64O13/c1-20-36(46)29(42)16-34(49-20)53-38-22(3)51-35(18-31(38)44)54-37-21(2)50-33(17-30(37)43)52-25-8-11-39(4)24(15-25)6-7-28-27(39)9-12-40(5)26(10-13-41(28,40)47)23-14-32(45)48-19-23/h14,20-22,24-31,33-38,42-44,46-47H,6-13,15-19H2,1-5H3/t20-,21-,22-,24-,25+,26-,27+,28-,29+,30+,31+,33+,34+,35+,36-,37-,38-,39+,40-,41+/m1/s1

>  <INCHI_KEY>  (1) 
WDJUZGPOPHTGOT-XUDUSOBPSA-N

>  <JCHEM_ACCEPTOR_COUNT>  (1) 
12

>  <JCHEM_AVERAGE_POLARIZABILITY>  (1) 
83.57979383218016

>  <JCHEM_BIOAVAILABILITY>  (1) 
0

>  <JCHEM_DONOR_COUNT>  (1) 
5

>  <JCHEM_FORMAL_CHARGE>  (1) 
0

>  <JCHEM_GHOSE_FILTER>  (1) 
0

>  <JCHEM_IUPAC>  (1) 
4-[(1S,2S,5S,7R,10R,11S,14R,15R)-5-{[(2R,4S,5S,6R)-5-{[(2S,4S,5S,6R)-5-{[(2S,4S,5S,6R)-4,5-dihydroxy-6-methyloxan-2-yl]oxy}-4-hydroxy-6-methyloxan-2-yl]oxy}-4-hydroxy-6-methyloxan-2-yl]oxy}-11-hydroxy-2,15-dimethyltetracyclo[8.7.0.0²,⁷.0¹¹,¹⁵]heptadecan-14-yl]-2,5-dihydrofuran-2-one

>  <JCHEM_LOGP>  (1) 
3.597491739000001

>  <JCHEM_MDDR_LIKE_RULE>  (1) 
1

>  <JCHEM_NUMBER_OF_RINGS>  (1) 
8

>  <JCHEM_PHYSIOLOGICAL_CHARGE>  (1) 
0

>  <JCHEM_PKA>  (1) 
13.03063451959638

>  <JCHEM_PKA_STRONGEST_ACIDIC>  (1) 
7.1826356067617585

>  <JCHEM_PKA_STRONGEST_BASIC>  (1) 
0.2422182727916834

>  <JCHEM_POLAR_SURFACE_AREA>  (1) 
182.82999999999998

>  <JCHEM_REFRACTIVITY>  (1) 
191.71729999999994

>  <JCHEM_ROTATABLE_BOND_COUNT>  (1) 
7

>  <JCHEM_RULE_OF_FIVE>  (1) 
0

>  <JCHEM_TRADITIONAL_IUPAC>  (1) 
digitoxin

>  <JCHEM_VEBER_RULE>  (1) 
0

>  <MOLECULAR_WEIGHT>  (1) 
764.9391

>  <PRODUCTS>  (1) 
Digitaline Welcker Tab 0.1mg

>  <SMILES>  (1) 
[H][C@]12CC[C@]3([H])[C@]([H])(CC[C@]4(C)[C@H](CC[C@]34O)C3=CC(=O)OC3)[C@@]1(C)CC[C@@H](C2)O[C@H]1C[C@H](O)[C@H](O[C@H]2C[C@H](O)[C@H](O[C@H]3C[C@H](O)[C@H](O)[C@@H](C)O3)[C@@H](C)O2)[C@@H](C)O1

>  <SYNONYMS>  (1) 
Digitoxoside

$$$$
