
     RDKit          2D

 33 34  0  0  0  0  0  0  0  0999 V2000
   -0.4017   -0.6035    0.0000 C   0  0  0  0  0  0  0  0  0  0  0  0
   -1.1162   -1.0160    0.0000 C   0  0  0  0  0  0  0  0  0  0  0  0
   -1.1162   -1.8410    0.0000 C   0  0  0  0  0  0  0  0  0  0  0  0
   -0.4017   -2.2535    0.0000 C   0  0  0  0  0  0  0  0  0  0  0  0
    0.3126   -1.8410    0.0000 C   0  0  0  0  0  0  0  0  0  0  0  0
    0.3126   -1.0160    0.0000 C   0  0  0  0  0  0  0  0  0  0  0  0
   -0.4017    0.2214    0.0000 N   0  0  0  0  0  0  0  0  0  0  0  0
    1.0271   -0.6035    0.0000 Cl  0  0  0  0  0  0  0  0  0  0  0  0
   -1.8307   -0.6035    0.0000 F   0  0  0  0  0  0  0  0  0  0  0  0
   -1.1162    0.6339    0.0000 C   0  0  0  0  0  0  0  0  0  0  0  0
   -1.8307    0.2214    0.0000 C   0  0  0  0  0  0  0  0  0  0  0  0
   -1.1162    1.4589    0.0000 C   0  0  0  0  0  0  0  0  0  0  0  0
   -1.8307    1.8714    0.0000 C   0  0  0  0  0  0  0  0  0  0  0  0
   -2.5452    1.4589    0.0000 C   0  0  0  0  0  0  0  0  0  0  0  0
   -2.5452    0.6339    0.0000 C   0  0  0  0  0  0  0  0  0  0  0  0
   -3.2597    1.8714    0.0000 C   0  0  0  0  0  0  0  0  0  0  0  0
   -0.4018    1.8714    0.0000 C   0  0  0  0  0  0  0  0  0  0  0  0
   -0.4018    2.6964    0.0000 C   0  0  0  0  0  0  0  0  0  0  0  0
   -1.1163    3.1089    0.0000 O   0  0  0  0  0  0  0  0  0  0  0  0
    0.3126    3.1089    0.0000 O   0  0  0  0  0  0  0  0  0  0  0  0
    0.0000    0.0000    0.0000 H   0  0  0  0  0  0  0  0  0  0  0  0
    0.0000    0.0000    0.0000 H   0  0  0  0  0  0  0  0  0  0  0  0
    0.0000    0.0000    0.0000 H   0  0  0  0  0  0  0  0  0  0  0  0
    0.0000    0.0000    0.0000 H   0  0  0  0  0  0  0  0  0  0  0  0
    0.0000    0.0000    0.0000 H   0  0  0  0  0  0  0  0  0  0  0  0
    0.0000    0.0000    0.0000 H   0  0  0  0  0  0  0  0  0  0  0  0
    0.0000    0.0000    0.0000 H   0  0  0  0  0  0  0  0  0  0  0  0
    0.0000    0.0000    0.0000 H   0  0  0  0  0  0  0  0  0  0  0  0
    0.0000    0.0000    0.0000 H   0  0  0  0  0  0  0  0  0  0  0  0
    0.0000    0.0000    0.0000 H   0  0  0  0  0  0  0  0  0  0  0  0
    0.0000    0.0000    0.0000 H   0  0  0  0  0  0  0  0  0  0  0  0
    0.0000    0.0000    0.0000 H   0  0  0  0  0  0  0  0  0  0  0  0
    0.0000    0.0000    0.0000 H   0  0  0  0  0  0  0  0  0  0  0  0
  1  2  2  0
  1  6  1  0
  2  3  1  0
  3  4  2  0
  4  5  1  0
  5  6  2  0
  1  7  1  0
  6  8  1  0
  2  9  1  0
  7 10  1  0
 10 11  2  0
 12 13  2  0
 13 14  1  0
 14 15  2  0
 10 12  1  0
 15 11  1  0
 14 16  1  0
 12 17  1  0
 17 18  1  0
 18 19  2  0
 18 20  1  0
  3 21  1  0
  4 22  1  0
  5 23  1  0
  7 24  1  0
 11 25  1  0
 13 26  1  0
 15 27  1  0
 16 28  1  0
 16 29  1  0
 16 30  1  0
 17 31  1  0
 17 32  1  0
 20 33  1  0
M  END
>  <ALOGPS_LOGP>  (1) 
4.56

>  <ALOGPS_LOGS>  (1) 
-4.73

>  <ALOGPS_SOLUBILITY>  (1) 
5.49e-03 g/l

>  <DATABASE_ID>  (1) 
DB01283

>  <DATABASE_NAME>  (1) 
drugbank

>  <DRUGBANK_ID>  (1) 
DB01283

>  <DRUG_GROUPS>  (1) 
approved; investigational

>  <EXACT_MASS>  (1) 
293.061884577

>  <FORMULA>  (1) 
C15H13ClFNO2

>  <GENERIC_NAME>  (1) 
Lumiracoxib

>  <INCHI_IDENTIFIER>  (1) 
InChI=1S/C15H13ClFNO2/c1-9-5-6-13(10(7-9)8-14(19)20)18-15-11(16)3-2-4-12(15)17/h2-7,18H,8H2,1H3,(H,19,20)

>  <INCHI_KEY>  (1) 
KHPKQFYUPIUARC-UHFFFAOYSA-N

>  <INTERNATIONAL_BRANDS>  (1) 
Prexige

>  <JCHEM_ACCEPTOR_COUNT>  (1) 
3

>  <JCHEM_AVERAGE_POLARIZABILITY>  (1) 
28.531909913563837

>  <JCHEM_BIOAVAILABILITY>  (1) 
1

>  <JCHEM_DONOR_COUNT>  (1) 
2

>  <JCHEM_FORMAL_CHARGE>  (1) 
0

>  <JCHEM_GHOSE_FILTER>  (1) 
1

>  <JCHEM_IUPAC>  (1) 
2-{2-[(2-chloro-6-fluorophenyl)amino]-5-methylphenyl}acetic acid

>  <JCHEM_LOGP>  (1) 
4.311087882666666

>  <JCHEM_MDDR_LIKE_RULE>  (1) 
0

>  <JCHEM_NUMBER_OF_RINGS>  (1) 
2

>  <JCHEM_PHYSIOLOGICAL_CHARGE>  (1) 
-1

>  <JCHEM_PKA>  (1) 
15.87317816721037

>  <JCHEM_PKA_STRONGEST_ACIDIC>  (1) 
4.11490126377279

>  <JCHEM_PKA_STRONGEST_BASIC>  (1) 
-1.8911868358338375

>  <JCHEM_POLAR_SURFACE_AREA>  (1) 
49.33

>  <JCHEM_REFRACTIVITY>  (1) 
75.91419999999998

>  <JCHEM_ROTATABLE_BOND_COUNT>  (1) 
4

>  <JCHEM_RULE_OF_FIVE>  (1) 
1

>  <JCHEM_TRADITIONAL_IUPAC>  (1) 
lumiracoxib

>  <JCHEM_VEBER_RULE>  (1) 
0

>  <MOLECULAR_WEIGHT>  (1) 
293.721

>  <SMILES>  (1) 
CC1=CC=C(NC2=C(Cl)C=CC=C2F)C(CC(O)=O)=C1

$$$$
