 
     RDKit          2D

108113  0  0  1  0  0  0  0  0999 V2000
   19.8000   -6.6747    0.0000 C   0  0  0  0  0  0  0  0  0  0  0  0
   19.8000   -7.5409    0.0000 C   0  0  0  0  0  0  0  0  0  0  0  0
   21.2437   -7.4997    0.0000 O   0  0  0  0  0  0  0  0  0  0  0  0
   21.2437   -6.6747    0.0000 C   0  0  0  0  0  0  0  0  0  0  0  0
   20.5012   -6.2622    0.0000 C   0  0  0  0  0  0  0  0  0  0  0  0
   22.6462   -6.6747    0.0000 C   0  0  0  0  0  0  0  0  0  0  0  0
   21.9450   -6.2622    0.0000 C   0  0  0  0  0  0  0  0  0  0  0  0
   23.3886   -7.9534    0.0000 C   0  0  0  0  0  0  0  0  0  0  0  0
   24.0898   -7.5409    0.0000 C   0  0  0  0  0  0  0  0  0  0  0  0
   24.0898   -6.6747    0.0000 C   0  0  0  0  0  0  0  0  0  0  0  0
   23.3886   -6.2622    0.0000 C   0  0  0  0  0  0  0  0  0  0  0  0
   21.9450   -5.4372    0.0000 C   0  0  0  0  0  0  0  0  0  0  0  0
   20.5012   -5.4372    0.0000 C   0  0  0  0  0  0  0  0  0  0  0  0
   19.0988   -6.2622    0.0000 O   0  0  0  0  0  0  0  0  0  0  0  0
   24.7911   -7.9534    0.0000 C   0  0  0  0  0  0  0  0  0  0  0  0
   22.6874   -7.5409    0.0000 O   0  0  0  0  0  0  0  0  0  0  0  0
   23.3886   -8.9434    0.0000 N   0  0  0  0  0  0  0  0  0  0  0  0
   19.0988   -7.9534    0.0000 C   0  0  0  0  0  0  0  0  0  0  0  0
   18.3975   -7.5409    0.0000 O   0  0  0  0  0  0  0  0  0  0  0  0
   19.0988   -8.9434    0.0000 C   0  0  0  0  0  0  0  0  0  0  0  0
   22.6874   -9.3559    0.0000 C   0  0  0  0  0  0  0  0  0  0  0  0
   22.6874  -10.1809    0.0000 C   0  0  0  0  0  0  0  0  0  0  0  0
   21.9450   -8.9434    0.0000 C   0  0  0  0  0  0  0  0  0  0  0  0
   21.2437   -9.3559    0.0000 C   0  0  0  0  0  0  0  0  0  0  0  0
   21.2437  -10.1809    0.0000 C   0  0  0  0  0  0  0  0  0  0  0  0
   21.9450  -10.5933    0.0000 C   0  0  0  0  0  0  0  0  0  0  0  0
   20.5425   -8.9434    0.0000 C   0  0  0  0  0  0  0  0  0  0  0  0
   19.8000   -9.3559    0.0000 C   0  0  0  0  0  0  0  0  0  0  0  0
   19.8000  -10.1809    0.0000 C   0  0  0  0  0  0  0  0  0  0  0  0
   20.5425  -10.5933    0.0000 C   0  0  0  0  0  0  0  0  0  0  0  0
   21.9450   -8.1184    0.0000 O   0  0  0  0  0  0  0  0  0  0  0  0
   20.5425   -8.1184    0.0000 O   0  0  0  0  0  0  0  0  0  0  0  0
   19.0988   -6.8809    0.0000 C   0  0  0  0  0  0  0  0  0  0  0  0
   17.6550   -7.1284    0.0000 C   0  0  0  0  0  0  0  0  0  0  0  0
   16.9538   -7.5409    0.0000 C   0  0  0  0  0  0  0  0  0  0  0  0
   17.6550   -6.3034    0.0000 O   0  0  0  0  0  0  0  0  0  0  0  0
   18.3975   -9.3559    0.0000 C   0  0  0  0  0  0  0  0  0  0  0  0
   17.6963   -8.9434    0.0000 O   0  0  0  0  0  0  0  0  0  0  0  0
   18.3975  -10.1809    0.0000 C   0  0  0  0  0  0  0  0  0  0  0  0
   18.3975   -8.3659    0.0000 C   0  0  0  0  0  0  0  0  0  0  0  0
   16.9951   -9.3559    0.0000 C   0  0  0  0  0  0  0  0  0  0  0  0
   17.6963  -10.5933    0.0000 C   0  0  0  0  0  0  0  0  0  0  0  0
   17.6963  -11.4183    0.0000 O   0  0  0  0  0  0  0  0  0  0  0  0
   19.0988  -10.5933    0.0000 O   0  0  0  0  0  0  0  0  0  0  0  0
   19.0988  -11.4183    0.0000 C   0  0  0  0  0  0  0  0  0  0  0  0
   20.5425  -11.4183    0.0000 C   0  0  0  0  0  0  0  0  0  0  0  0
   19.0988  -12.2433    0.0000 C   0  0  0  0  0  0  0  0  0  0  0  0
   19.8000   -8.5309    0.0000 C   0  0  0  0  0  0  0  0  0  0  0  0
   21.9450  -11.4183    0.0000 N   0  0  0  0  0  0  0  0  0  0  0  0
   23.3886  -11.4183    0.0000 C   0  0  0  0  0  0  0  0  0  0  0  0
   23.3886  -10.5933    0.0000 N   0  0  0  0  0  0  0  0  0  0  0  0
   21.2024  -11.8308    0.0000 O   0  0  0  0  0  0  0  0  0  0  0  0
   24.1360  -11.8498    0.0000 C   0  0  0  0  0  0  0  0  0  0  0  0
   24.8835  -11.4183    0.0000 C   0  0  0  0  0  0  0  0  0  0  0  0
   24.8835  -10.5933    0.0000 C   0  0  0  0  0  0  0  0  0  0  0  0
   24.1360  -10.1618    0.0000 C   0  0  0  0  0  0  0  0  0  0  0  0
   25.6496  -11.8604    0.0000 C   0  0  0  0  0  0  0  0  0  0  0  0
    0.0000    0.0000    0.0000 H   0  0  0  0  0  0  0  0  0  0  0  0
    0.0000    0.0000    0.0000 H   0  0  0  0  0  0  0  0  0  0  0  0
    0.0000    0.0000    0.0000 H   0  0  0  0  0  0  0  0  0  0  0  0
    0.0000    0.0000    0.0000 H   0  0  0  0  0  0  0  0  0  0  0  0
    0.0000    0.0000    0.0000 H   0  0  0  0  0  0  0  0  0  0  0  0
    0.0000    0.0000    0.0000 H   0  0  0  0  0  0  0  0  0  0  0  0
    0.0000    0.0000    0.0000 H   0  0  0  0  0  0  0  0  0  0  0  0
    0.0000    0.0000    0.0000 H   0  0  0  0  0  0  0  0  0  0  0  0
    0.0000    0.0000    0.0000 H   0  0  0  0  0  0  0  0  0  0  0  0
    0.0000    0.0000    0.0000 H   0  0  0  0  0  0  0  0  0  0  0  0
    0.0000    0.0000    0.0000 H   0  0  0  0  0  0  0  0  0  0  0  0
    0.0000    0.0000    0.0000 H   0  0  0  0  0  0  0  0  0  0  0  0
    0.0000    0.0000    0.0000 H   0  0  0  0  0  0  0  0  0  0  0  0
    0.0000    0.0000    0.0000 H   0  0  0  0  0  0  0  0  0  0  0  0
    0.0000    0.0000    0.0000 H   0  0  0  0  0  0  0  0  0  0  0  0
    0.0000    0.0000    0.0000 H   0  0  0  0  0  0  0  0  0  0  0  0
    0.0000    0.0000    0.0000 H   0  0  0  0  0  0  0  0  0  0  0  0
    0.0000    0.0000    0.0000 H   0  0  0  0  0  0  0  0  0  0  0  0
    0.0000    0.0000    0.0000 H   0  0  0  0  0  0  0  0  0  0  0  0
    0.0000    0.0000    0.0000 H   0  0  0  0  0  0  0  0  0  0  0  0
    0.0000    0.0000    0.0000 H   0  0  0  0  0  0  0  0  0  0  0  0
    0.0000    0.0000    0.0000 H   0  0  0  0  0  0  0  0  0  0  0  0
    0.0000    0.0000    0.0000 H   0  0  0  0  0  0  0  0  0  0  0  0
    0.0000    0.0000    0.0000 H   0  0  0  0  0  0  0  0  0  0  0  0
    0.0000    0.0000    0.0000 H   0  0  0  0  0  0  0  0  0  0  0  0
    0.0000    0.0000    0.0000 H   0  0  0  0  0  0  0  0  0  0  0  0
    0.0000    0.0000    0.0000 H   0  0  0  0  0  0  0  0  0  0  0  0
    0.0000    0.0000    0.0000 H   0  0  0  0  0  0  0  0  0  0  0  0
    0.0000    0.0000    0.0000 H   0  0  0  0  0  0  0  0  0  0  0  0
    0.0000    0.0000    0.0000 H   0  0  0  0  0  0  0  0  0  0  0  0
    0.0000    0.0000    0.0000 H   0  0  0  0  0  0  0  0  0  0  0  0
    0.0000    0.0000    0.0000 H   0  0  0  0  0  0  0  0  0  0  0  0
    0.0000    0.0000    0.0000 H   0  0  0  0  0  0  0  0  0  0  0  0
    0.0000    0.0000    0.0000 H   0  0  0  0  0  0  0  0  0  0  0  0
    0.0000    0.0000    0.0000 H   0  0  0  0  0  0  0  0  0  0  0  0
    0.0000    0.0000    0.0000 H   0  0  0  0  0  0  0  0  0  0  0  0
    0.0000    0.0000    0.0000 H   0  0  0  0  0  0  0  0  0  0  0  0
    0.0000    0.0000    0.0000 H   0  0  0  0  0  0  0  0  0  0  0  0
    0.0000    0.0000    0.0000 H   0  0  0  0  0  0  0  0  0  0  0  0
    0.0000    0.0000    0.0000 H   0  0  0  0  0  0  0  0  0  0  0  0
    0.0000    0.0000    0.0000 H   0  0  0  0  0  0  0  0  0  0  0  0
    0.0000    0.0000    0.0000 H   0  0  0  0  0  0  0  0  0  0  0  0
    0.0000    0.0000    0.0000 H   0  0  0  0  0  0  0  0  0  0  0  0
    0.0000    0.0000    0.0000 H   0  0  0  0  0  0  0  0  0  0  0  0
    0.0000    0.0000    0.0000 H   0  0  0  0  0  0  0  0  0  0  0  0
    0.0000    0.0000    0.0000 H   0  0  0  0  0  0  0  0  0  0  0  0
    0.0000    0.0000    0.0000 H   0  0  0  0  0  0  0  0  0  0  0  0
    0.0000    0.0000    0.0000 H   0  0  0  0  0  0  0  0  0  0  0  0
    0.0000    0.0000    0.0000 H   0  0  0  0  0  0  0  0  0  0  0  0
    0.0000    0.0000    0.0000 H   0  0  0  0  0  0  0  0  0  0  0  0
    0.0000    0.0000    0.0000 H   0  0  0  0  0  0  0  0  0  0  0  0
  1  2  1  0
  4  3  1  6
  4  5  1  0
  1  5  1  0
  6  7  1  0
  4  7  1  0
  8  9  1  0
  9 10  2  0
 10 11  1  0
  6 11  2  0
  7 12  1  1
  5 13  1  6
  1 14  1  6
  9 15  1  0
  8 16  2  0
  8 17  1  0
  2 18  1  0
 18 19  1  1
 18 20  1  0
 17 21  1  0
 21 22  1  0
 21 23  2  0
 23 24  1  0
 24 25  1  0
 25 26  1  0
 24 27  2  0
 27 28  1  0
 28 29  2  0
 29 30  1  0
 25 30  2  0
 23 31  1  0
 27 32  1  0
  2 33  1  6
 19 34  1  0
 34 35  1  0
 34 36  2  0
 26 22  2  0
 20 37  1  0
 37 38  1  6
 37 39  1  0
 20 40  1  1
 38 41  1  0
 39 42  2  0
 42 43  1  0
 29 44  1  0
 44 45  1  0
 43 45  1  0
 30 46  1  0
 45 46  1  0
 45 47  1  6
 28 48  1  0
 26 49  1  0
 50 51  1  0
 22 51  1  0
 52 46  2  0
 49 50  2  0
 50 53  1  0
 53 54  2  0
 54 55  1  0
 55 56  2  0
 51 56  1  0
 54 57  1  0
  1 58  1  0
  2 59  1  0
  3 60  1  0
  4 61  1  0
  5 62  1  0
  6 63  1  0
  7 64  1  0
 10 65  1  0
 11 66  1  0
 12 67  1  0
 12 68  1  0
 12 69  1  0
 13 70  1  0
 13 71  1  0
 13 72  1  0
 14 73  1  0
 15 74  1  0
 15 75  1  0
 15 76  1  0
 17 77  1  0
 18 78  1  0
 20 79  1  0
 31 80  1  0
 32 81  1  0
 33 82  1  0
 33 83  1  0
 33 84  1  0
 35 85  1  0
 35 86  1  0
 35 87  1  0
 37 88  1  0
 39 89  1  0
 40 90  1  0
 40 91  1  0
 40 92  1  0
 41 93  1  0
 41 94  1  0
 41 95  1  0
 42 96  1  0
 47 97  1  0
 47 98  1  0
 47 99  1  0
 48100  1  0
 48101  1  0
 48102  1  0
 53103  1  0
 55104  1  0
 56105  1  0
 57106  1  0
 57107  1  0
 57108  1  0
M  END
>  <ALOGPS_LOGP>  (1) 
4.94

>  <ALOGPS_LOGS>  (1) 
-5.03

>  <ALOGPS_SOLUBILITY>  (1) 
7.38e-03 g/l

>  <DATABASE_ID>  (1) 
DB01220

>  <DATABASE_NAME>  (1) 
drugbank

>  <DRUGBANK_ID>  (1) 
DB01220

>  <DRUG_GROUPS>  (1) 
approved; investigational

>  <EXACT_MASS>  (1) 
785.352359489

>  <FORMULA>  (1) 
C43H51N3O11

>  <GENERIC_NAME>  (1) 
Rifaximin

>  <INCHI_IDENTIFIER>  (1) 
InChI=1S/C43H51N3O11/c1-19-14-16-46-28(18-19)44-32-29-30-37(50)25(7)40-31(29)41(52)43(9,57-40)55-17-15-27(54-10)22(4)39(56-26(8)47)24(6)36(49)23(5)35(48)20(2)12-11-13-21(3)42(53)45-33(34(32)46)38(30)51/h11-18,20,22-24,27,35-36,39,48-51H,1-10H3,(H,45,53)/b12-11+,17-15+,21-13-/t20-,22+,23+,24+,27-,35-,36+,39+,43-/m0/s1

>  <INCHI_KEY>  (1) 
NZCRJKRKKOLAOJ-XRCRFVBUSA-N

>  <INTERNATIONAL_BRANDS>  (1) 
Normix; Rifacol; Xifaxsan

>  <JCHEM_ACCEPTOR_COUNT>  (1) 
11

>  <JCHEM_AVERAGE_POLARIZABILITY>  (1) 
82.25598427547271

>  <JCHEM_BIOAVAILABILITY>  (1) 
0

>  <JCHEM_DONOR_COUNT>  (1) 
5

>  <JCHEM_FORMAL_CHARGE>  (1) 
0

>  <JCHEM_GHOSE_FILTER>  (1) 
0

>  <JCHEM_IUPAC>  (1) 
(7S,9E,11S,12R,13S,14R,15R,16R,17S,18S,19E,21Z)-2,15,17,36-tetrahydroxy-11-methoxy-3,7,12,14,16,18,22,30-octamethyl-6,23-dioxo-8,37-dioxa-24,27,33-triazahexacyclo[23.10.1.1⁴,⁷.0⁵,³⁵.0²⁶,³⁴.0²⁷,³²]heptatriaconta-1,3,5(35),9,19,21,25(36),26(34),28,30,32-undecaen-13-yl acetate

>  <JCHEM_LOGP>  (1) 
4.3720907210402435

>  <JCHEM_MDDR_LIKE_RULE>  (1) 
0

>  <JCHEM_NUMBER_OF_RINGS>  (1) 
6

>  <JCHEM_PHYSIOLOGICAL_CHARGE>  (1) 
-1

>  <JCHEM_PKA>  (1) 
7.672458386880839

>  <JCHEM_PKA_STRONGEST_ACIDIC>  (1) 
3.6639940668448676

>  <JCHEM_PKA_STRONGEST_BASIC>  (1) 
11.869863824533871

>  <JCHEM_POLAR_SURFACE_AREA>  (1) 
198.37999999999997

>  <JCHEM_REFRACTIVITY>  (1) 
216.6926

>  <JCHEM_ROTATABLE_BOND_COUNT>  (1) 
3

>  <JCHEM_RULE_OF_FIVE>  (1) 
0

>  <JCHEM_TRADITIONAL_IUPAC>  (1) 
rifaximin

>  <JCHEM_VEBER_RULE>  (1) 
0

>  <MOLECULAR_WEIGHT>  (1) 
785.8785

>  <PRODUCTS>  (1) 
Xifaxan; Zaxine

>  <SECONDARY_ACCESSION_NUMBERS>  (1) 
APRD01218

>  <SMILES>  (1) 
CO[C@H]1\C=C\O[C@@]2(C)OC3=C(C)C(O)=C4C(O)=C(NC(=O)\C(C)=C/C=C/[C@H](C)[C@H](O)[C@@H](C)[C@@H](O)[C@@H](C)[C@H](OC(C)=O)[C@@H]1C)C1=C(N=C5C=C(C)C=CN15)C4=C3C2=O

>  <SYNONYMS>  (1) 
Rifamycin L 105; Rifamycin L 105SV; Rifaxidin; Rifaximin; Rifaximina; Rifaximine; Rifaximinum

$$$$
