
     RDKit          2D

 58 61  0  0  0  0  0  0  0  0999 V2000
   -0.8484   -0.6703    0.0000 N   0  0  0  0  0  0  0  0  0  0  0  0
   -0.8484   -2.3203    0.0000 S   0  0  0  0  0  0  0  0  0  0  0  0
   -0.1340   -1.0828    0.0000 C   0  0  0  0  0  0  0  0  0  0  0  0
   -1.5629   -1.0828    0.0000 C   0  0  0  0  0  0  0  0  0  0  0  0
   -1.5629   -1.9078    0.0000 C   0  0  0  0  0  0  0  0  0  0  0  0
   -0.1340   -1.9078    0.0000 C   0  0  0  0  0  0  0  0  0  0  0  0
    0.5805   -0.6703    0.0000 C   0  0  0  0  0  0  0  0  0  0  0  0
   -2.2774   -0.6703    0.0000 C   0  0  0  0  0  0  0  0  0  0  0  0
   -2.2774   -2.3203    0.0000 C   0  0  0  0  0  0  0  0  0  0  0  0
    0.5805   -2.3203    0.0000 C   0  0  0  0  0  0  0  0  0  0  0  0
   -2.9918   -1.9078    0.0000 C   0  0  0  0  0  0  0  0  0  0  0  0
    1.2950   -1.9078    0.0000 C   0  0  0  0  0  0  0  0  0  0  0  0
   -0.8484    0.1547    0.0000 C   0  0  0  0  0  0  0  0  0  0  0  0
   -0.1340    0.5672    0.0000 C   0  0  0  0  0  0  0  0  0  0  0  0
   -0.1340    1.3922    0.0000 C   0  0  0  0  0  0  0  0  0  0  0  0
    0.5805    1.8047    0.0000 N   0  0  0  0  0  0  0  0  0  0  0  0
    2.0094    2.6297    0.0000 N   0  0  0  0  0  0  0  0  0  0  0  0
    2.0094    1.8047    0.0000 C   0  0  0  0  0  0  0  0  0  0  0  0
    0.5805    2.6297    0.0000 C   0  0  0  0  0  0  0  0  0  0  0  0
    1.2950    3.0422    0.0000 C   0  0  0  0  0  0  0  0  0  0  0  0
    1.2950    1.3922    0.0000 C   0  0  0  0  0  0  0  0  0  0  0  0
    2.7239    3.0422    0.0000 C   0  0  0  0  0  0  0  0  0  0  0  0
    3.4384    2.6297    0.0000 C   0  0  0  0  0  0  0  0  0  0  0  0
    4.1529    3.0422    0.0000 O   0  0  0  0  0  0  0  0  0  0  0  0
   -2.9918   -1.0828    0.0000 C   0  0  0  0  0  0  0  0  0  0  0  0
    1.2950   -1.0828    0.0000 C   0  0  0  0  0  0  0  0  0  0  0  0
    2.7239   -1.0828    0.0000 C   0  0  0  0  0  0  0  0  0  0  0  0
    2.0094   -0.6703    0.0000 C   0  0  0  0  0  0  0  0  0  0  0  0
    2.0094    0.1547    0.0000 O   0  0  0  0  0  0  0  0  0  0  0  0
    0.0000    0.0000    0.0000 H   0  0  0  0  0  0  0  0  0  0  0  0
    0.0000    0.0000    0.0000 H   0  0  0  0  0  0  0  0  0  0  0  0
    0.0000    0.0000    0.0000 H   0  0  0  0  0  0  0  0  0  0  0  0
    0.0000    0.0000    0.0000 H   0  0  0  0  0  0  0  0  0  0  0  0
    0.0000    0.0000    0.0000 H   0  0  0  0  0  0  0  0  0  0  0  0
    0.0000    0.0000    0.0000 H   0  0  0  0  0  0  0  0  0  0  0  0
    0.0000    0.0000    0.0000 H   0  0  0  0  0  0  0  0  0  0  0  0
    0.0000    0.0000    0.0000 H   0  0  0  0  0  0  0  0  0  0  0  0
    0.0000    0.0000    0.0000 H   0  0  0  0  0  0  0  0  0  0  0  0
    0.0000    0.0000    0.0000 H   0  0  0  0  0  0  0  0  0  0  0  0
    0.0000    0.0000    0.0000 H   0  0  0  0  0  0  0  0  0  0  0  0
    0.0000    0.0000    0.0000 H   0  0  0  0  0  0  0  0  0  0  0  0
    0.0000    0.0000    0.0000 H   0  0  0  0  0  0  0  0  0  0  0  0
    0.0000    0.0000    0.0000 H   0  0  0  0  0  0  0  0  0  0  0  0
    0.0000    0.0000    0.0000 H   0  0  0  0  0  0  0  0  0  0  0  0
    0.0000    0.0000    0.0000 H   0  0  0  0  0  0  0  0  0  0  0  0
    0.0000    0.0000    0.0000 H   0  0  0  0  0  0  0  0  0  0  0  0
    0.0000    0.0000    0.0000 H   0  0  0  0  0  0  0  0  0  0  0  0
    0.0000    0.0000    0.0000 H   0  0  0  0  0  0  0  0  0  0  0  0
    0.0000    0.0000    0.0000 H   0  0  0  0  0  0  0  0  0  0  0  0
    0.0000    0.0000    0.0000 H   0  0  0  0  0  0  0  0  0  0  0  0
    0.0000    0.0000    0.0000 H   0  0  0  0  0  0  0  0  0  0  0  0
    0.0000    0.0000    0.0000 H   0  0  0  0  0  0  0  0  0  0  0  0
    0.0000    0.0000    0.0000 H   0  0  0  0  0  0  0  0  0  0  0  0
    0.0000    0.0000    0.0000 H   0  0  0  0  0  0  0  0  0  0  0  0
    0.0000    0.0000    0.0000 H   0  0  0  0  0  0  0  0  0  0  0  0
    0.0000    0.0000    0.0000 H   0  0  0  0  0  0  0  0  0  0  0  0
    0.0000    0.0000    0.0000 H   0  0  0  0  0  0  0  0  0  0  0  0
    0.0000    0.0000    0.0000 H   0  0  0  0  0  0  0  0  0  0  0  0
  3  1  1  0
  4  1  1  0
 13  1  1  0
  5  2  1  0
  6  2  1  0
  6  3  2  0
  7  3  1  0
  5  4  2  0
  8  4  1  0
  9  5  1  0
 10  6  1  0
 26  7  2  0
 25  8  2  0
 11  9  2  0
 12 10  2  0
 12 26  1  0
 25 11  1  0
 14 13  1  0
 15 14  1  0
 16 15  1  0
 19 16  1  0
 21 16  1  0
 18 17  1  0
 20 17  1  0
 22 17  1  0
 21 18  1  0
 20 19  1  0
 23 22  1  0
 24 23  1  0
 26 28  1  0
 28 27  1  0
 28 29  2  0
  7 30  1  0
  8 31  1  0
  9 32  1  0
 10 33  1  0
 11 34  1  0
 12 35  1  0
 13 36  1  0
 13 37  1  0
 14 38  1  0
 14 39  1  0
 15 40  1  0
 15 41  1  0
 18 42  1  0
 18 43  1  0
 19 44  1  0
 19 45  1  0
 20 46  1  0
 20 47  1  0
 21 48  1  0
 21 49  1  0
 22 50  1  0
 22 51  1  0
 23 52  1  0
 23 53  1  0
 24 54  1  0
 25 55  1  0
 27 56  1  0
 27 57  1  0
 27 58  1  0
M  END
>  <ALOGPS_LOGP>  (1) 
3.48

>  <ALOGPS_LOGS>  (1) 
-3.84

>  <ALOGPS_SOLUBILITY>  (1) 
6.01e-02 g/l

>  <DATABASE_ID>  (1) 
DB01063

>  <DATABASE_NAME>  (1) 
drugbank

>  <DRUGBANK_ID>  (1) 
DB01063

>  <DRUG_GROUPS>  (1) 
approved

>  <EXACT_MASS>  (1) 
411.198047877

>  <FORMULA>  (1) 
C23H29N3O2S

>  <GENERIC_NAME>  (1) 
Acetophenazine

>  <INCHI_IDENTIFIER>  (1) 
InChI=1S/C23H29N3O2S/c1-18(28)19-7-8-23-21(17-19)26(20-5-2-3-6-22(20)29-23)10-4-9-24-11-13-25(14-12-24)15-16-27/h2-3,5-8,17,27H,4,9-16H2,1H3

>  <INCHI_KEY>  (1) 
WNTYBHLDCKXEOT-UHFFFAOYSA-N

>  <INTERNATIONAL_BRANDS>  (1) 
Tindal

>  <JCHEM_ACCEPTOR_COUNT>  (1) 
5

>  <JCHEM_AVERAGE_POLARIZABILITY>  (1) 
46.67707657970997

>  <JCHEM_BIOAVAILABILITY>  (1) 
1

>  <JCHEM_DONOR_COUNT>  (1) 
1

>  <JCHEM_FORMAL_CHARGE>  (1) 
0

>  <JCHEM_GHOSE_FILTER>  (1) 
1

>  <JCHEM_IUPAC>  (1) 
1-(10-{3-[4-(2-hydroxyethyl)piperazin-1-yl]propyl}-10H-phenothiazin-2-yl)ethan-1-one

>  <JCHEM_LOGP>  (1) 
2.6456206516666665

>  <JCHEM_MDDR_LIKE_RULE>  (1) 
1

>  <JCHEM_NUMBER_OF_RINGS>  (1) 
4

>  <JCHEM_PHYSIOLOGICAL_CHARGE>  (1) 
1

>  <JCHEM_PKA>  (1) 
16.184498311746577

>  <JCHEM_PKA_STRONGEST_ACIDIC>  (1) 
15.464547169765439

>  <JCHEM_PKA_STRONGEST_BASIC>  (1) 
8.06622490611481

>  <JCHEM_POLAR_SURFACE_AREA>  (1) 
47.02

>  <JCHEM_REFRACTIVITY>  (1) 
121.69669999999996

>  <JCHEM_ROTATABLE_BOND_COUNT>  (1) 
7

>  <JCHEM_RULE_OF_FIVE>  (1) 
1

>  <JCHEM_TRADITIONAL_IUPAC>  (1) 
acetophenazine

>  <JCHEM_VEBER_RULE>  (1) 
0

>  <MOLECULAR_WEIGHT>  (1) 
411.56

>  <SALTS>  (1) 
Acetophenazine maleate

>  <SECONDARY_ACCESSION_NUMBERS>  (1) 
APRD00462

>  <SMILES>  (1) 
CC(=O)C1=CC=C2SC3=C(C=CC=C3)N(CCCN3CCN(CCO)CC3)C2=C1

$$$$
