1231
     RDKit          2D

 50 52  0  0  0  0  0  0  0  0999 V2000
    1.9058    0.1915    0.0000 O   0  0  0  0  0  0  0  0  0  0  0  0
    5.2059   -1.2375    0.0000 N   0  0  0  0  0  0  0  0  0  0  0  0
    6.0309   -1.2375    0.0000 C   0  0  0  0  0  0  0  0  0  0  0  0
    4.7934   -1.9520    0.0000 C   0  0  0  0  0  0  0  0  0  0  0  0
    4.7934   -0.5231    0.0000 C   0  0  0  0  0  0  0  0  0  0  0  0
    6.4434   -1.9520    0.0000 C   0  0  0  0  0  0  0  0  0  0  0  0
    5.2059   -2.6665    0.0000 C   0  0  0  0  0  0  0  0  0  0  0  0
    6.0309   -2.6665    0.0000 C   0  0  0  0  0  0  0  0  0  0  0  0
    3.9683   -0.5231    0.0000 C   0  0  0  0  0  0  0  0  0  0  0  0
    3.5558    0.1915    0.0000 C   0  0  0  0  0  0  0  0  0  0  0  0
    2.7308    0.1915    0.0000 C   0  0  0  0  0  0  0  0  0  0  0  0
    2.7308    1.0165    0.0000 C   0  0  0  0  0  0  0  0  0  0  0  0
    2.7308   -0.6335    0.0000 C   0  0  0  0  0  0  0  0  0  0  0  0
    2.0163    1.4290    0.0000 C   0  0  0  0  0  0  0  0  0  0  0  0
    3.4453   -1.0460    0.0000 C   0  0  0  0  0  0  0  0  0  0  0  0
    3.4453    1.4290    0.0000 C   0  0  0  0  0  0  0  0  0  0  0  0
    2.0163   -1.0460    0.0000 C   0  0  0  0  0  0  0  0  0  0  0  0
    2.0163    2.2540    0.0000 C   0  0  0  0  0  0  0  0  0  0  0  0
    3.4453   -1.8711    0.0000 C   0  0  0  0  0  0  0  0  0  0  0  0
    3.4453    2.2540    0.0000 C   0  0  0  0  0  0  0  0  0  0  0  0
    2.0163   -1.8711    0.0000 C   0  0  0  0  0  0  0  0  0  0  0  0
    2.7308    2.6665    0.0000 C   0  0  0  0  0  0  0  0  0  0  0  0
    2.7308   -2.2836    0.0000 C   0  0  0  0  0  0  0  0  0  0  0  0
    0.0000    0.0000    0.0000 H   0  0  0  0  0  0  0  0  0  0  0  0
    0.0000    0.0000    0.0000 H   0  0  0  0  0  0  0  0  0  0  0  0
    0.0000    0.0000    0.0000 H   0  0  0  0  0  0  0  0  0  0  0  0
    0.0000    0.0000    0.0000 H   0  0  0  0  0  0  0  0  0  0  0  0
    0.0000    0.0000    0.0000 H   0  0  0  0  0  0  0  0  0  0  0  0
    0.0000    0.0000    0.0000 H   0  0  0  0  0  0  0  0  0  0  0  0
    0.0000    0.0000    0.0000 H   0  0  0  0  0  0  0  0  0  0  0  0
    0.0000    0.0000    0.0000 H   0  0  0  0  0  0  0  0  0  0  0  0
    0.0000    0.0000    0.0000 H   0  0  0  0  0  0  0  0  0  0  0  0
    0.0000    0.0000    0.0000 H   0  0  0  0  0  0  0  0  0  0  0  0
    0.0000    0.0000    0.0000 H   0  0  0  0  0  0  0  0  0  0  0  0
    0.0000    0.0000    0.0000 H   0  0  0  0  0  0  0  0  0  0  0  0
    0.0000    0.0000    0.0000 H   0  0  0  0  0  0  0  0  0  0  0  0
    0.0000    0.0000    0.0000 H   0  0  0  0  0  0  0  0  0  0  0  0
    0.0000    0.0000    0.0000 H   0  0  0  0  0  0  0  0  0  0  0  0
    0.0000    0.0000    0.0000 H   0  0  0  0  0  0  0  0  0  0  0  0
    0.0000    0.0000    0.0000 H   0  0  0  0  0  0  0  0  0  0  0  0
    0.0000    0.0000    0.0000 H   0  0  0  0  0  0  0  0  0  0  0  0
    0.0000    0.0000    0.0000 H   0  0  0  0  0  0  0  0  0  0  0  0
    0.0000    0.0000    0.0000 H   0  0  0  0  0  0  0  0  0  0  0  0
    0.0000    0.0000    0.0000 H   0  0  0  0  0  0  0  0  0  0  0  0
    0.0000    0.0000    0.0000 H   0  0  0  0  0  0  0  0  0  0  0  0
    0.0000    0.0000    0.0000 H   0  0  0  0  0  0  0  0  0  0  0  0
    0.0000    0.0000    0.0000 H   0  0  0  0  0  0  0  0  0  0  0  0
    0.0000    0.0000    0.0000 H   0  0  0  0  0  0  0  0  0  0  0  0
    0.0000    0.0000    0.0000 H   0  0  0  0  0  0  0  0  0  0  0  0
    0.0000    0.0000    0.0000 H   0  0  0  0  0  0  0  0  0  0  0  0
  1 11  1  0
  2  3  1  0
  2  4  1  0
  2  5  1  0
  3  6  1  0
  4  7  1  0
  5  9  1  0
  6  8  1  0
  7  8  1  0
  9 10  1  0
 10 11  1  0
 11 12  1  0
 11 13  1  0
 12 14  2  0
 12 16  1  0
 13 15  2  0
 13 17  1  0
 14 18  1  0
 15 19  1  0
 16 20  2  0
 17 21  2  0
 18 22  2  0
 19 23  2  0
 20 22  1  0
 21 23  1  0
  1 24  1  0
  3 25  1  0
  3 26  1  0
  4 27  1  0
  4 28  1  0
  5 29  1  0
  5 30  1  0
  6 31  1  0
  6 32  1  0
  7 33  1  0
  7 34  1  0
  8 35  1  0
  8 36  1  0
  9 37  1  0
  9 38  1  0
 10 39  1  0
 10 40  1  0
 14 41  1  0
 15 42  1  0
 16 43  1  0
 17 44  1  0
 18 45  1  0
 19 46  1  0
 20 47  1  0
 21 48  1  0
 22 49  1  0
 23 50  1  0
M  END
>  <ALOGPS_LOGP>  (1) 
4.08

>  <ALOGPS_LOGS>  (1) 
-4.72

>  <ALOGPS_SOLUBILITY>  (1) 
5.87e-03 g/l

>  <DATABASE_ID>  (1) 
DB01231

>  <DATABASE_NAME>  (1) 
drugbank

>  <DRUGBANK_ID>  (1) 
DB01231

>  <DRUG_GROUPS>  (1) 
approved; investigational; withdrawn

>  <EXACT_MASS>  (1) 
309.209264491

>  <FORMULA>  (1) 
C21H27NO

>  <GENERIC_NAME>  (1) 
Diphenidol

>  <INCHI_IDENTIFIER>  (1) 
InChI=1S/C21H27NO/c23-21(19-11-4-1-5-12-19,20-13-6-2-7-14-20)15-10-18-22-16-8-3-9-17-22/h1-2,4-7,11-14,23H,3,8-10,15-18H2

>  <INCHI_KEY>  (1) 
OGAKLTJNUQRZJU-UHFFFAOYSA-N

>  <INTERNATIONAL_BRANDS>  (1) 
Satanolon; Verterge; Vontrol; Yesdol

>  <JCHEM_ACCEPTOR_COUNT>  (1) 
2

>  <JCHEM_AVERAGE_POLARIZABILITY>  (1) 
36.66024370405669

>  <JCHEM_BIOAVAILABILITY>  (1) 
1

>  <JCHEM_DONOR_COUNT>  (1) 
1

>  <JCHEM_FORMAL_CHARGE>  (1) 
0

>  <JCHEM_GHOSE_FILTER>  (1) 
1

>  <JCHEM_IUPAC>  (1) 
1,1-diphenyl-4-(piperidin-1-yl)butan-1-ol

>  <JCHEM_LOGP>  (1) 
4.221518408333333

>  <JCHEM_MDDR_LIKE_RULE>  (1) 
1

>  <JCHEM_NUMBER_OF_RINGS>  (1) 
3

>  <JCHEM_PHYSIOLOGICAL_CHARGE>  (1) 
1

>  <JCHEM_PKA_STRONGEST_ACIDIC>  (1) 
13.398821031355268

>  <JCHEM_PKA_STRONGEST_BASIC>  (1) 
9.233466452494154

>  <JCHEM_POLAR_SURFACE_AREA>  (1) 
23.47

>  <JCHEM_REFRACTIVITY>  (1) 
96.91840000000003

>  <JCHEM_ROTATABLE_BOND_COUNT>  (1) 
6

>  <JCHEM_RULE_OF_FIVE>  (1) 
1

>  <JCHEM_TRADITIONAL_IUPAC>  (1) 
diphenidol

>  <JCHEM_VEBER_RULE>  (1) 
1

>  <MOLECULAR_WEIGHT>  (1) 
309.4452

>  <SALTS>  (1) 
Diphenidol Hydrochloride

>  <SECONDARY_ACCESSION_NUMBERS>  (1) 
APRD00929

>  <SMILES>  (1) 
OC(CCCN1CCCCC1)(C1=CC=CC=C1)C1=CC=CC=C1

>  <SYNONYMS>  (1) 
Difenidol; Difenidolo; Difenidolum

$$$$
