
     RDKit          2D

 31 31  0  0  0  0  0  0  0  0999 V2000
   -2.1474    0.3659    0.0000 C   0  0  0  0  0  0  0  0  0  0  0  0
   -2.8649    0.7683    0.0000 C   0  0  0  0  0  0  0  0  0  0  0  0
   -0.7222    0.3902    0.0000 N   0  0  0  0  0  0  0  0  0  0  0  0
    0.0000   -0.0024    0.0000 C   0  0  0  0  0  0  0  0  0  0  0  0
    0.6981    0.4193    0.0000 C   0  0  0  0  0  0  0  0  0  0  0  0
   -1.4251   -0.0315    0.0000 C   0  0  0  0  0  0  0  0  0  0  0  0
    1.4156    0.0121    0.0000 C   0  0  0  0  0  0  0  0  0  0  0  0
   -0.7222    1.2095    0.0000 C   0  0  0  0  0  0  0  0  0  0  0  0
    0.0000   -0.8314    0.0000 C   0  0  0  0  0  0  0  0  0  0  0  0
    2.1281    0.4193    0.0000 C   0  0  0  0  0  0  0  0  0  0  0  0
    1.4107   -0.8168    0.0000 C   0  0  0  0  0  0  0  0  0  0  0  0
    2.1426   -1.2095    0.0000 C   0  0  0  0  0  0  0  0  0  0  0  0
    2.8407    0.0412    0.0000 C   0  0  0  0  0  0  0  0  0  0  0  0
    2.8649   -0.7877    0.0000 C   0  0  0  0  0  0  0  0  0  0  0  0
    0.0000    0.0000    0.0000 H   0  0  0  0  0  0  0  0  0  0  0  0
    0.0000    0.0000    0.0000 H   0  0  0  0  0  0  0  0  0  0  0  0
    0.0000    0.0000    0.0000 H   0  0  0  0  0  0  0  0  0  0  0  0
    0.0000    0.0000    0.0000 H   0  0  0  0  0  0  0  0  0  0  0  0
    0.0000    0.0000    0.0000 H   0  0  0  0  0  0  0  0  0  0  0  0
    0.0000    0.0000    0.0000 H   0  0  0  0  0  0  0  0  0  0  0  0
    0.0000    0.0000    0.0000 H   0  0  0  0  0  0  0  0  0  0  0  0
    0.0000    0.0000    0.0000 H   0  0  0  0  0  0  0  0  0  0  0  0
    0.0000    0.0000    0.0000 H   0  0  0  0  0  0  0  0  0  0  0  0
    0.0000    0.0000    0.0000 H   0  0  0  0  0  0  0  0  0  0  0  0
    0.0000    0.0000    0.0000 H   0  0  0  0  0  0  0  0  0  0  0  0
    0.0000    0.0000    0.0000 H   0  0  0  0  0  0  0  0  0  0  0  0
    0.0000    0.0000    0.0000 H   0  0  0  0  0  0  0  0  0  0  0  0
    0.0000    0.0000    0.0000 H   0  0  0  0  0  0  0  0  0  0  0  0
    0.0000    0.0000    0.0000 H   0  0  0  0  0  0  0  0  0  0  0  0
    0.0000    0.0000    0.0000 H   0  0  0  0  0  0  0  0  0  0  0  0
    0.0000    0.0000    0.0000 H   0  0  0  0  0  0  0  0  0  0  0  0
  2  1  3  0
  3  6  1  0
  4  3  1  1
  5  4  1  0
  6  1  1  0
  7  5  1  0
  8  3  1  0
  4  9  1  0
 10  7  2  0
 11  7  1  0
 12 11  2  0
 13 10  1  0
 14 13  2  0
 14 12  1  0
  2 15  1  0
  4 16  1  0
  5 17  1  0
  5 18  1  0
  6 19  1  0
  6 20  1  0
  8 21  1  0
  8 22  1  0
  8 23  1  0
  9 24  1  0
  9 25  1  0
  9 26  1  0
 10 27  1  0
 11 28  1  0
 12 29  1  0
 13 30  1  0
 14 31  1  0
M  END
>  <ALOGPS_LOGP>  (1) 
3.08

>  <ALOGPS_LOGS>  (1) 
-3.87

>  <ALOGPS_SOLUBILITY>  (1) 
2.54e-02 g/l

>  <DATABASE_ID>  (1) 
DB01037

>  <DATABASE_NAME>  (1) 
drugbank

>  <DRUGBANK_ID>  (1) 
DB01037

>  <DRUG_GROUPS>  (1) 
approved; investigational; vet_approved

>  <EXACT_MASS>  (1) 
187.136099551

>  <FORMULA>  (1) 
C13H17N

>  <GENERIC_NAME>  (1) 
Selegiline

>  <INCHI_IDENTIFIER>  (1) 
InChI=1S/C13H17N/c1-4-10-14(3)12(2)11-13-8-6-5-7-9-13/h1,5-9,12H,10-11H2,2-3H3/t12-/m1/s1

>  <INCHI_KEY>  (1) 
MEZLKOACVSPNER-GFCCVEGCSA-N

>  <INTERNATIONAL_BRANDS>  (1) 
Carbex; Jumex

>  <JCHEM_ACCEPTOR_COUNT>  (1) 
1

>  <JCHEM_ATOM_COUNT>  (1) 
31

>  <JCHEM_AVERAGE_POLARIZABILITY>  (1) 
22.6926793199976

>  <JCHEM_BIOAVAILABILITY>  (1) 
1

>  <JCHEM_DONOR_COUNT>  (1) 
0

>  <JCHEM_FORMAL_CHARGE>  (1) 
0

>  <JCHEM_GHOSE_FILTER>  (1) 
1

>  <JCHEM_IUPAC>  (1) 
methyl[(2R)-1-phenylpropan-2-yl](prop-2-yn-1-yl)amine

>  <JCHEM_LOGP>  (1) 
2.847961858666666

>  <JCHEM_MDDR_LIKE_RULE>  (1) 
0

>  <JCHEM_NUMBER_OF_RINGS>  (1) 
1

>  <JCHEM_PHYSIOLOGICAL_CHARGE>  (1) 
1

>  <JCHEM_PKA_STRONGEST_BASIC>  (1) 
8.673062124439458

>  <JCHEM_POLAR_SURFACE_AREA>  (1) 
3.24

>  <JCHEM_REFRACTIVITY>  (1) 
61.35470000000001

>  <JCHEM_ROTATABLE_BOND_COUNT>  (1) 
4

>  <JCHEM_RULE_OF_FIVE>  (1) 
1

>  <JCHEM_TRADITIONAL_IUPAC>  (1) 
selegiline

>  <JCHEM_VEBER_RULE>  (1) 
1

>  <MOLECULAR_WEIGHT>  (1) 
187.286

>  <PRODUCTS>  (1) 
Apo-selegiline; Dom-selegiline; Eldepryl; Eldepryl - 5mg Tab; Eldepryl Tab 5mg; Emsam; Med Selegiline; Mylan-selegiline; Nu-selegiline; PMS-selegiline; Selegiline; Selegiline Hydrochloride; Selegiline-5; Teva-selegiline; Zelapar

>  <SALTS>  (1) 
Selegiline hydrochloride

>  <SECONDARY_ACCESSION_NUMBERS>  (1) 
APRD00525

>  <SMILES>  (1) 
C[C@H](CC1=CC=CC=C1)N(C)CC#C

>  <SYNONYMS>  (1) 
(âˆ’)-selegiline; L-Deprenalin; Selegilina; Selegilinum

$$$$
