1120
     RDKit          2D

 43 45  0  0  1  0  0  0  0  0999 V2000
    3.3002   -0.3808    0.0000 S   0  0  0  0  0  0  0  0  0  0  0  0
    4.9503   -0.3808    0.0000 O   0  0  0  0  0  0  0  0  0  0  0  0
    4.0147    0.0318    0.0000 O   0  0  0  0  0  0  0  0  0  0  0  0
    2.5857   -0.7933    0.0000 O   0  0  0  0  0  0  0  0  0  0  0  0
    5.7753   -1.8098    0.0000 N   0  0  0  0  0  0  0  0  0  0  0  0
    4.9503   -1.8098    0.0000 N   0  0  0  0  0  0  0  0  0  0  0  0
    3.7127   -1.0953    0.0000 N   0  0  0  0  0  0  0  0  0  0  0  0
    7.0449   -1.3973    0.0000 C   0  0  0  0  0  0  0  0  0  0  0  0
    7.0449   -2.2224    0.0000 C   0  0  0  0  0  0  0  0  0  0  0  0
    7.8257   -1.1458    0.0000 C   0  0  0  0  0  0  0  0  0  0  0  0
    7.8257   -2.4737    0.0000 C   0  0  0  0  0  0  0  0  0  0  0  0
    6.2603   -1.1424    0.0000 C   0  0  0  0  0  0  0  0  0  0  0  0
    6.2603   -2.4773    0.0000 C   0  0  0  0  0  0  0  0  0  0  0  0
    8.3072   -1.8098    0.0000 C   0  0  0  0  0  0  0  0  0  0  0  0
    4.5378   -1.0953    0.0000 C   0  0  0  0  0  0  0  0  0  0  0  0
    2.8877    0.3337    0.0000 C   0  0  0  0  0  0  0  0  0  0  0  0
    3.3002    1.0482    0.0000 C   0  0  0  0  0  0  0  0  0  0  0  0
    2.0626    0.3337    0.0000 C   0  0  0  0  0  0  0  0  0  0  0  0
    2.0626    1.7628    0.0000 C   0  0  0  0  0  0  0  0  0  0  0  0
    2.8877    1.7628    0.0000 C   0  0  0  0  0  0  0  0  0  0  0  0
    1.6501    1.0482    0.0000 C   0  0  0  0  0  0  0  0  0  0  0  0
    1.6501    2.4773    0.0000 C   0  0  0  0  0  0  0  0  0  0  0  0
    0.0000    0.0000    0.0000 H   0  0  0  0  0  0  0  0  0  0  0  0
    0.0000    0.0000    0.0000 H   0  0  0  0  0  0  0  0  0  0  0  0
    0.0000    0.0000    0.0000 H   0  0  0  0  0  0  0  0  0  0  0  0
    0.0000    0.0000    0.0000 H   0  0  0  0  0  0  0  0  0  0  0  0
    0.0000    0.0000    0.0000 H   0  0  0  0  0  0  0  0  0  0  0  0
    0.0000    0.0000    0.0000 H   0  0  0  0  0  0  0  0  0  0  0  0
    0.0000    0.0000    0.0000 H   0  0  0  0  0  0  0  0  0  0  0  0
    0.0000    0.0000    0.0000 H   0  0  0  0  0  0  0  0  0  0  0  0
    0.0000    0.0000    0.0000 H   0  0  0  0  0  0  0  0  0  0  0  0
    0.0000    0.0000    0.0000 H   0  0  0  0  0  0  0  0  0  0  0  0
    0.0000    0.0000    0.0000 H   0  0  0  0  0  0  0  0  0  0  0  0
    0.0000    0.0000    0.0000 H   0  0  0  0  0  0  0  0  0  0  0  0
    0.0000    0.0000    0.0000 H   0  0  0  0  0  0  0  0  0  0  0  0
    0.0000    0.0000    0.0000 H   0  0  0  0  0  0  0  0  0  0  0  0
    0.0000    0.0000    0.0000 H   0  0  0  0  0  0  0  0  0  0  0  0
    0.0000    0.0000    0.0000 H   0  0  0  0  0  0  0  0  0  0  0  0
    0.0000    0.0000    0.0000 H   0  0  0  0  0  0  0  0  0  0  0  0
    0.0000    0.0000    0.0000 H   0  0  0  0  0  0  0  0  0  0  0  0
    0.0000    0.0000    0.0000 H   0  0  0  0  0  0  0  0  0  0  0  0
    0.0000    0.0000    0.0000 H   0  0  0  0  0  0  0  0  0  0  0  0
    0.0000    0.0000    0.0000 H   0  0  0  0  0  0  0  0  0  0  0  0
  1  3  2  0
  1  4  2  0
  1  7  1  0
  1 16  1  0
  2 15  2  0
  5  6  1  0
  5 12  1  0
  5 13  1  0
  6 15  1  0
  7 15  1  0
  8  9  1  0
  8 10  1  0
  8 12  1  0
  9 11  1  0
  9 13  1  0
 10 14  1  0
 11 14  1  0
 16 17  2  0
 16 18  1  0
 17 20  1  0
 18 21  2  0
 19 20  2  0
 19 21  1  0
 19 22  1  0
  6 23  1  0
  7 24  1  0
  8 25  1  0
  9 26  1  0
 10 27  1  0
 10 28  1  0
 11 29  1  0
 11 30  1  0
 12 31  1  0
 12 32  1  0
 13 33  1  0
 13 34  1  0
 14 35  1  0
 14 36  1  0
 17 37  1  0
 18 38  1  0
 20 39  1  0
 21 40  1  0
 22 41  1  0
 22 42  1  0
 22 43  1  0
M  END
>  <ALOGPS_LOGP>  (1) 
1.52

>  <ALOGPS_LOGS>  (1) 
-3.23

>  <ALOGPS_SOLUBILITY>  (1) 
1.90e-01 g/l

>  <DATABASE_ID>  (1) 
DB01120

>  <DATABASE_NAME>  (1) 
drugbank

>  <DRUGBANK_ID>  (1) 
DB01120

>  <DRUG_GROUPS>  (1) 
approved

>  <EXACT_MASS>  (1) 
323.130362243

>  <FORMULA>  (1) 
C15H21N3O3S

>  <GENERIC_NAME>  (1) 
Gliclazide

>  <INCHI_IDENTIFIER>  (1) 
InChI=1S/C15H21N3O3S/c1-11-5-7-14(8-6-11)22(20,21)17-15(19)16-18-9-12-3-2-4-13(12)10-18/h5-8,12-13H,2-4,9-10H2,1H3,(H2,16,17,19)

>  <INCHI_KEY>  (1) 
BOVGTQGAOIONJV-UHFFFAOYSA-N

>  <INTERNATIONAL_BRANDS>  (1) 
Diamicron

>  <JCHEM_ACCEPTOR_COUNT>  (1) 
4

>  <JCHEM_AVERAGE_POLARIZABILITY>  (1) 
34.21711731813597

>  <JCHEM_BIOAVAILABILITY>  (1) 
1

>  <JCHEM_DONOR_COUNT>  (1) 
2

>  <JCHEM_FORMAL_CHARGE>  (1) 
0

>  <JCHEM_GHOSE_FILTER>  (1) 
1

>  <JCHEM_IUPAC>  (1) 
1-(4-methylbenzenesulfonyl)-3-{octahydrocyclopenta[c]pyrrol-2-yl}urea

>  <JCHEM_LOGP>  (1) 
1.7336410856666662

>  <JCHEM_MDDR_LIKE_RULE>  (1) 
0

>  <JCHEM_NUMBER_OF_RINGS>  (1) 
3

>  <JCHEM_PHYSIOLOGICAL_CHARGE>  (1) 
-1

>  <JCHEM_PKA>  (1) 
14.129428055678513

>  <JCHEM_PKA_STRONGEST_ACIDIC>  (1) 
4.0704558701407265

>  <JCHEM_PKA_STRONGEST_BASIC>  (1) 
1.3823445842786881

>  <JCHEM_POLAR_SURFACE_AREA>  (1) 
78.51

>  <JCHEM_REFRACTIVITY>  (1) 
83.87610000000001

>  <JCHEM_ROTATABLE_BOND_COUNT>  (1) 
2

>  <JCHEM_RULE_OF_FIVE>  (1) 
1

>  <JCHEM_TRADITIONAL_IUPAC>  (1) 
gliclazide

>  <JCHEM_VEBER_RULE>  (1) 
0

>  <MOLECULAR_WEIGHT>  (1) 
323.411

>  <PRODUCTS>  (1) 
Apo-gliclazide; Apo-gliclazide Mr; Ava-gliclazide; Diamicron; Diamicron Mr; Glic; Gliclazide; Gliclazide -tab 80mg; Gliclazide-80; Gpc-gliclazide Mr; Mint-gliclazide Mr; Mylan-gliclazide; Mylan-gliclazide Mr; Nu-gliclazide; PMS-gliclazide; Ran-gliclazide Mr; Sandoz Gliclazide; Sandoz Gliclazide Mr; Teva-gliclazide

>  <SECONDARY_ACCESSION_NUMBERS>  (1) 
APRD00460

>  <SMILES>  (1) 
CC1=CC=C(C=C1)S(=O)(=O)NC(=O)NN1CC2CCCC2C1

>  <SYNONYMS>  (1) 
1-(3-Azabicyclo(3.3.0)oct-3-yl)-3-(p-tolylsulfonyl)urea; 1-(Hexahydrocyclopenta(c)pyrrol-2(1H)-yl)-3-(p-tolylsulfonyl)urea; Gliclazida; Gliclazidum

$$$$
