1586
     RDKit          2D

 68 71  0  0  1  0  0  0  0  0999 V2000
    6.5590   -2.5194    0.0000 O   0  0  0  0  0  0  0  0  0  0  0  0
    2.0919   -2.5366    0.0000 O   0  0  0  0  0  0  0  0  0  0  0  0
    9.7049    2.9254    0.0000 O   0  0  0  0  0  0  0  0  0  0  0  0
    9.9996    1.5273    0.0000 O   0  0  0  0  0  0  0  0  0  0  0  0
    6.5410   -0.8436    0.0000 C   0  0  0  0  0  0  0  0  0  0  0  0
    6.5410   -0.0186    0.0000 C   0  0  0  0  0  0  0  0  0  0  0  0
    5.8265   -1.2561    0.0000 C   0  0  0  0  0  0  0  0  0  0  0  0
    5.1122   -0.8436    0.0000 C   0  0  0  0  0  0  0  0  0  0  0  0
    4.3614   -1.2617    0.0000 C   0  0  0  0  0  0  0  0  0  0  0  0
    7.3215    0.2327    0.0000 C   0  0  0  0  0  0  0  0  0  0  0  0
    4.3547   -2.1210    0.0000 C   0  0  0  0  0  0  0  0  0  0  0  0
    5.8265    0.3939    0.0000 C   0  0  0  0  0  0  0  0  0  0  0  0
    5.1122   -0.0186    0.0000 C   0  0  0  0  0  0  0  0  0  0  0  0
    5.8398   -2.1153    0.0000 C   0  0  0  0  0  0  0  0  0  0  0  0
    7.3215   -1.0949    0.0000 C   0  0  0  0  0  0  0  0  0  0  0  0
    7.8030   -0.4312    0.0000 C   0  0  0  0  0  0  0  0  0  0  0  0
    5.0990   -2.5506    0.0000 C   0  0  0  0  0  0  0  0  0  0  0  0
    3.5968   -0.7963    0.0000 C   0  0  0  0  0  0  0  0  0  0  0  0
    6.5410    0.8063    0.0000 C   0  0  0  0  0  0  0  0  0  0  0  0
    7.5779    1.0169    0.0000 C   0  0  0  0  0  0  0  0  0  0  0  0
    3.5831   -2.5745    0.0000 C   0  0  0  0  0  0  0  0  0  0  0  0
    4.3678   -0.4368    0.0000 C   0  0  0  0  0  0  0  0  0  0  0  0
    2.8148   -1.2319    0.0000 C   0  0  0  0  0  0  0  0  0  0  0  0
    2.8079   -2.1270    0.0000 C   0  0  0  0  0  0  0  0  0  0  0  0
    8.3851    1.1870    0.0000 C   0  0  0  0  0  0  0  0  0  0  0  0
    7.0270    1.6310    0.0000 C   0  0  0  0  0  0  0  0  0  0  0  0
    8.6415    1.9712    0.0000 C   0  0  0  0  0  0  0  0  0  0  0  0
    9.4487    2.1413    0.0000 C   0  0  0  0  0  0  0  0  0  0  0  0
    0.0000    0.0000    0.0000 H   0  0  0  0  0  0  0  0  0  0  0  0
    0.0000    0.0000    0.0000 H   0  0  0  0  0  0  0  0  0  0  0  0
    0.0000    0.0000    0.0000 H   0  0  0  0  0  0  0  0  0  0  0  0
    0.0000    0.0000    0.0000 H   0  0  0  0  0  0  0  0  0  0  0  0
    0.0000    0.0000    0.0000 H   0  0  0  0  0  0  0  0  0  0  0  0
    0.0000    0.0000    0.0000 H   0  0  0  0  0  0  0  0  0  0  0  0
    0.0000    0.0000    0.0000 H   0  0  0  0  0  0  0  0  0  0  0  0
    0.0000    0.0000    0.0000 H   0  0  0  0  0  0  0  0  0  0  0  0
    0.0000    0.0000    0.0000 H   0  0  0  0  0  0  0  0  0  0  0  0
    0.0000    0.0000    0.0000 H   0  0  0  0  0  0  0  0  0  0  0  0
    0.0000    0.0000    0.0000 H   0  0  0  0  0  0  0  0  0  0  0  0
    0.0000    0.0000    0.0000 H   0  0  0  0  0  0  0  0  0  0  0  0
    0.0000    0.0000    0.0000 H   0  0  0  0  0  0  0  0  0  0  0  0
    0.0000    0.0000    0.0000 H   0  0  0  0  0  0  0  0  0  0  0  0
    0.0000    0.0000    0.0000 H   0  0  0  0  0  0  0  0  0  0  0  0
    0.0000    0.0000    0.0000 H   0  0  0  0  0  0  0  0  0  0  0  0
    0.0000    0.0000    0.0000 H   0  0  0  0  0  0  0  0  0  0  0  0
    0.0000    0.0000    0.0000 H   0  0  0  0  0  0  0  0  0  0  0  0
    0.0000    0.0000    0.0000 H   0  0  0  0  0  0  0  0  0  0  0  0
    0.0000    0.0000    0.0000 H   0  0  0  0  0  0  0  0  0  0  0  0
    0.0000    0.0000    0.0000 H   0  0  0  0  0  0  0  0  0  0  0  0
    0.0000    0.0000    0.0000 H   0  0  0  0  0  0  0  0  0  0  0  0
    0.0000    0.0000    0.0000 H   0  0  0  0  0  0  0  0  0  0  0  0
    0.0000    0.0000    0.0000 H   0  0  0  0  0  0  0  0  0  0  0  0
    0.0000    0.0000    0.0000 H   0  0  0  0  0  0  0  0  0  0  0  0
    0.0000    0.0000    0.0000 H   0  0  0  0  0  0  0  0  0  0  0  0
    0.0000    0.0000    0.0000 H   0  0  0  0  0  0  0  0  0  0  0  0
    0.0000    0.0000    0.0000 H   0  0  0  0  0  0  0  0  0  0  0  0
    0.0000    0.0000    0.0000 H   0  0  0  0  0  0  0  0  0  0  0  0
    0.0000    0.0000    0.0000 H   0  0  0  0  0  0  0  0  0  0  0  0
    0.0000    0.0000    0.0000 H   0  0  0  0  0  0  0  0  0  0  0  0
    0.0000    0.0000    0.0000 H   0  0  0  0  0  0  0  0  0  0  0  0
    0.0000    0.0000    0.0000 H   0  0  0  0  0  0  0  0  0  0  0  0
    0.0000    0.0000    0.0000 H   0  0  0  0  0  0  0  0  0  0  0  0
    0.0000    0.0000    0.0000 H   0  0  0  0  0  0  0  0  0  0  0  0
    0.0000    0.0000    0.0000 H   0  0  0  0  0  0  0  0  0  0  0  0
    0.0000    0.0000    0.0000 H   0  0  0  0  0  0  0  0  0  0  0  0
    0.0000    0.0000    0.0000 H   0  0  0  0  0  0  0  0  0  0  0  0
    0.0000    0.0000    0.0000 H   0  0  0  0  0  0  0  0  0  0  0  0
    0.0000    0.0000    0.0000 H   0  0  0  0  0  0  0  0  0  0  0  0
 14  1  1  6
 24  2  1  6
  3 28  1  0
  4 28  2  0
  5  6  1  0
  5  7  1  0
  5 15  1  0
  6 10  1  0
  6 12  1  0
  6 19  1  1
  7  8  1  0
  7 14  1  0
  8  9  1  0
  8 13  1  0
  9 11  1  0
  9 18  1  0
  9 22  1  1
 10 16  1  0
 10 20  1  0
 11 17  1  0
 11 21  1  0
 12 13  1  0
 14 17  1  0
 15 16  1  0
 18 23  1  0
 20 25  1  1
 20 26  1  0
 21 24  1  0
 23 24  1  0
 25 27  1  0
 27 28  1  0
  1 29  1  0
  2 30  1  0
  3 31  1  0
  5 32  1  6
  7 33  1  1
  8 34  1  6
 10 35  1  6
 11 36  1  1
 12 37  1  0
 12 38  1  0
 13 39  1  0
 13 40  1  0
 14 41  1  0
 15 42  1  0
 15 43  1  0
 16 44  1  0
 16 45  1  0
 17 46  1  0
 17 47  1  0
 18 48  1  0
 18 49  1  0
 19 50  1  0
 19 51  1  0
 19 52  1  0
 20 53  1  0
 21 54  1  0
 21 55  1  0
 22 56  1  0
 22 57  1  0
 22 58  1  0
 23 59  1  0
 23 60  1  0
 24 61  1  0
 25 62  1  0
 25 63  1  0
 26 64  1  0
 26 65  1  0
 26 66  1  0
 27 67  1  0
 27 68  1  0
M  END
>  <ALOGPS_LOGP>  (1) 
3.01

>  <ALOGPS_LOGS>  (1) 
-4.30

>  <ALOGPS_SOLUBILITY>  (1) 
1.97e-02 g/l

>  <DATABASE_ID>  (1) 
DB01586

>  <DATABASE_NAME>  (1) 
drugbank

>  <DRUGBANK_ID>  (1) 
DB01586

>  <DRUG_GROUPS>  (1) 
approved; investigational

>  <EXACT_MASS>  (1) 
392.292659768

>  <FORMULA>  (1) 
C24H40O4

>  <GENERIC_NAME>  (1) 
Ursodeoxycholic acid

>  <INCHI_IDENTIFIER>  (1) 
InChI=1S/C24H40O4/c1-14(4-7-21(27)28)17-5-6-18-22-19(9-11-24(17,18)3)23(2)10-8-16(25)12-15(23)13-20(22)26/h14-20,22,25-26H,4-13H2,1-3H3,(H,27,28)/t14-,15+,16-,17-,18+,19+,20+,22+,23+,24-/m1/s1

>  <INCHI_KEY>  (1) 
RUDATBOHQWOJDD-UZVSRGJWSA-N

>  <INTERNATIONAL_BRANDS>  (1) 
Cholit-ursan; Delursan; Destolit; Deursil; Litursol; Solutrat; Ursacol; Ursochol; Ursolvan

>  <JCHEM_ACCEPTOR_COUNT>  (1) 
4

>  <JCHEM_AVERAGE_POLARIZABILITY>  (1) 
46.33093619537419

>  <JCHEM_BIOAVAILABILITY>  (1) 
1

>  <JCHEM_DONOR_COUNT>  (1) 
3

>  <JCHEM_FORMAL_CHARGE>  (1) 
0

>  <JCHEM_GHOSE_FILTER>  (1) 
1

>  <JCHEM_IUPAC>  (1) 
(4R)-4-[(1S,2S,5R,7S,9S,10R,11S,14R,15R)-5,9-dihydroxy-2,15-dimethyltetracyclo[8.7.0.0²,⁷.0¹¹,¹⁵]heptadecan-14-yl]pentanoic acid

>  <JCHEM_LOGP>  (1) 
3.7133055236666674

>  <JCHEM_MDDR_LIKE_RULE>  (1) 
0

>  <JCHEM_NUMBER_OF_RINGS>  (1) 
4

>  <JCHEM_PHYSIOLOGICAL_CHARGE>  (1) 
-1

>  <JCHEM_PKA>  (1) 
18.296339908541825

>  <JCHEM_PKA_STRONGEST_ACIDIC>  (1) 
4.595945733487658

>  <JCHEM_PKA_STRONGEST_BASIC>  (1) 
-0.5356636301705279

>  <JCHEM_POLAR_SURFACE_AREA>  (1) 
77.75999999999999

>  <JCHEM_REFRACTIVITY>  (1) 
109.27379999999998

>  <JCHEM_ROTATABLE_BOND_COUNT>  (1) 
4

>  <JCHEM_RULE_OF_FIVE>  (1) 
1

>  <JCHEM_TRADITIONAL_IUPAC>  (1) 
Urso

>  <JCHEM_VEBER_RULE>  (1) 
0

>  <MOLECULAR_WEIGHT>  (1) 
392.572

>  <PRODUCTS>  (1) 
Actigall; Dom-ursodiol C; Mint-ursodiol; Novo-ursodiol; PHL-ursodiol C; PMS-ursodiol; PMS-ursodiol C; Pendo-ursodiol C; Urso; Urso 250; Urso DS; Urso Forte; Ursodiol; Ursodiol Tablets USP; Ursodiol Tablets, 250 mg; Ursodiol Tablets, 500 mg; Ursofalk

>  <SMILES>  (1) 
[H][C@@]1(CC[C@@]2([H])[C@]3([H])[C@@H](O)C[C@]4([H])C[C@H](O)CC[C@]4(C)[C@@]3([H])CC[C@]12C)[C@H](C)CCC(O)=O

>  <SYNONYMS>  (1) 
(3alpha,5beta,7beta)-3,7-dihydroxycholan-24-oic acid; (3α,5β,7β)-3,7-dihydroxycholan-24-oic acid; 3alpha,7beta-Dihydroxy-5beta-cholan-24-oic acid; Acide ursodesoxycholique; Acido ursodeossicolico; Acido ursodeoxicolico; Acidum ursodeoxycholicum; UDCA; Ursodiol

$$$$
