1425
     RDKit          2D

 44 46  0  0  1  0  0  0  0  0999 V2000
    4.4999   -0.8410    0.0000 O   0  0  0  0  0  0  0  0  0  0  0  0
    5.2144   -2.0786    0.0000 O   0  0  0  0  0  0  0  0  0  0  0  0
    3.8325    2.1190    0.0000 N   0  0  0  0  0  0  0  0  0  0  0  0
    5.2144    0.3965    0.0000 N   0  0  0  0  0  0  0  0  0  0  0  0
    8.1385   -0.5896    0.0000 N   0  0  0  0  0  0  0  0  0  0  0  0
    8.1385   -1.9175    0.0000 N   0  0  0  0  0  0  0  0  0  0  0  0
    8.6200   -1.2535    0.0000 N   0  0  0  0  0  0  0  0  0  0  0  0
    4.4999    1.6340    0.0000 C   0  0  0  0  0  0  0  0  0  0  0  0
    5.1673    2.1190    0.0000 C   0  0  0  0  0  0  0  0  0  0  0  0
    4.9124    2.9036    0.0000 C   0  0  0  0  0  0  0  0  0  0  0  0
    4.0874    2.9036    0.0000 C   0  0  0  0  0  0  0  0  0  0  0  0
    4.4999    0.8090    0.0000 C   0  0  0  0  0  0  0  0  0  0  0  0
    3.0478    1.8640    0.0000 C   0  0  0  0  0  0  0  0  0  0  0  0
    2.4347    2.4161    0.0000 C   0  0  0  0  0  0  0  0  0  0  0  0
    5.2144   -0.4285    0.0000 C   0  0  0  0  0  0  0  0  0  0  0  0
    5.9288   -0.8410    0.0000 C   0  0  0  0  0  0  0  0  0  0  0  0
    1.6500    2.1611    0.0000 C   0  0  0  0  0  0  0  0  0  0  0  0
    5.9288   -1.6660    0.0000 C   0  0  0  0  0  0  0  0  0  0  0  0
    6.6434   -0.4285    0.0000 C   0  0  0  0  0  0  0  0  0  0  0  0
    7.3578   -0.8410    0.0000 C   0  0  0  0  0  0  0  0  0  0  0  0
    6.6434   -2.0786    0.0000 C   0  0  0  0  0  0  0  0  0  0  0  0
    7.3578   -1.6660    0.0000 C   0  0  0  0  0  0  0  0  0  0  0  0
    5.2144   -2.9036    0.0000 C   0  0  0  0  0  0  0  0  0  0  0  0
    0.0000    0.0000    0.0000 H   0  0  0  0  0  0  0  0  0  0  0  0
    0.0000    0.0000    0.0000 H   0  0  0  0  0  0  0  0  0  0  0  0
    0.0000    0.0000    0.0000 H   0  0  0  0  0  0  0  0  0  0  0  0
    0.0000    0.0000    0.0000 H   0  0  0  0  0  0  0  0  0  0  0  0
    0.0000    0.0000    0.0000 H   0  0  0  0  0  0  0  0  0  0  0  0
    0.0000    0.0000    0.0000 H   0  0  0  0  0  0  0  0  0  0  0  0
    0.0000    0.0000    0.0000 H   0  0  0  0  0  0  0  0  0  0  0  0
    0.0000    0.0000    0.0000 H   0  0  0  0  0  0  0  0  0  0  0  0
    0.0000    0.0000    0.0000 H   0  0  0  0  0  0  0  0  0  0  0  0
    0.0000    0.0000    0.0000 H   0  0  0  0  0  0  0  0  0  0  0  0
    0.0000    0.0000    0.0000 H   0  0  0  0  0  0  0  0  0  0  0  0
    0.0000    0.0000    0.0000 H   0  0  0  0  0  0  0  0  0  0  0  0
    0.0000    0.0000    0.0000 H   0  0  0  0  0  0  0  0  0  0  0  0
    0.0000    0.0000    0.0000 H   0  0  0  0  0  0  0  0  0  0  0  0
    0.0000    0.0000    0.0000 H   0  0  0  0  0  0  0  0  0  0  0  0
    0.0000    0.0000    0.0000 H   0  0  0  0  0  0  0  0  0  0  0  0
    0.0000    0.0000    0.0000 H   0  0  0  0  0  0  0  0  0  0  0  0
    0.0000    0.0000    0.0000 H   0  0  0  0  0  0  0  0  0  0  0  0
    0.0000    0.0000    0.0000 H   0  0  0  0  0  0  0  0  0  0  0  0
    0.0000    0.0000    0.0000 H   0  0  0  0  0  0  0  0  0  0  0  0
    0.0000    0.0000    0.0000 H   0  0  0  0  0  0  0  0  0  0  0  0
  1 15  2  0
  2 18  1  0
  2 23  1  0
  3  8  1  0
  3 11  1  0
  3 13  1  0
  4 12  1  0
  4 15  1  0
  5  7  1  0
  5 20  2  0
  6  7  1  0
  6 22  2  0
  8  9  1  0
  8 12  1  0
  9 10  1  0
 10 11  1  0
 13 14  1  0
 14 17  2  3
 15 16  1  0
 16 18  1  0
 16 19  2  0
 18 21  2  0
 19 20  1  0
 20 22  1  0
 21 22  1  0
  4 24  1  0
  7 25  1  0
  8 26  1  0
  9 27  1  0
  9 28  1  0
 10 29  1  0
 10 30  1  0
 11 31  1  0
 11 32  1  0
 12 33  1  0
 12 34  1  0
 13 35  1  0
 13 36  1  0
 14 37  1  0
 17 38  1  0
 17 39  1  0
 19 40  1  0
 21 41  1  0
 23 42  1  0
 23 43  1  0
 23 44  1  0
M  END
>  <ALOGPS_LOGP>  (1) 
1.81

>  <ALOGPS_LOGS>  (1) 
-2.80

>  <ALOGPS_SOLUBILITY>  (1) 
4.95e-01 g/l

>  <DATABASE_ID>  (1) 
DB01425

>  <DATABASE_NAME>  (1) 
drugbank

>  <DRUGBANK_ID>  (1) 
DB01425

>  <DRUG_GROUPS>  (1) 
approved

>  <EXACT_MASS>  (1) 
315.169524941

>  <FORMULA>  (1) 
C16H21N5O2

>  <GENERIC_NAME>  (1) 
Alizapride

>  <INCHI_IDENTIFIER>  (1) 
InChI=1S/C16H21N5O2/c1-3-6-21-7-4-5-11(21)10-17-16(22)12-8-13-14(19-20-18-13)9-15(12)23-2/h3,8-9,11H,1,4-7,10H2,2H3,(H,17,22)(H,18,19,20)

>  <INCHI_KEY>  (1) 
KSEYRUGYKHXGFW-UHFFFAOYSA-N

>  <INTERNATIONAL_BRANDS>  (1) 
Limican

>  <JCHEM_ACCEPTOR_COUNT>  (1) 
5

>  <JCHEM_AVERAGE_POLARIZABILITY>  (1) 
33.923922124835265

>  <JCHEM_BIOAVAILABILITY>  (1) 
1

>  <JCHEM_DONOR_COUNT>  (1) 
2

>  <JCHEM_FORMAL_CHARGE>  (1) 
0

>  <JCHEM_GHOSE_FILTER>  (1) 
1

>  <JCHEM_IUPAC>  (1) 
6-methoxy-N-{[1-(prop-2-en-1-yl)pyrrolidin-2-yl]methyl}-2H-1,2,3-benzotriazole-5-carboxamide

>  <JCHEM_LOGP>  (1) 
1.1190993874086288

>  <JCHEM_MDDR_LIKE_RULE>  (1) 
1

>  <JCHEM_NUMBER_OF_RINGS>  (1) 
3

>  <JCHEM_PHYSIOLOGICAL_CHARGE>  (1) 
1

>  <JCHEM_PKA>  (1) 
13.566333595975387

>  <JCHEM_PKA_STRONGEST_ACIDIC>  (1) 
8.859522021448297

>  <JCHEM_PKA_STRONGEST_BASIC>  (1) 
7.770149327157755

>  <JCHEM_POLAR_SURFACE_AREA>  (1) 
83.13999999999999

>  <JCHEM_REFRACTIVITY>  (1) 
89.2115

>  <JCHEM_ROTATABLE_BOND_COUNT>  (1) 
6

>  <JCHEM_RULE_OF_FIVE>  (1) 
1

>  <JCHEM_TRADITIONAL_IUPAC>  (1) 
alizapride

>  <JCHEM_VEBER_RULE>  (1) 
0

>  <MOLECULAR_WEIGHT>  (1) 
315.3702

>  <SALTS>  (1) 
Alizapride hydrochloride

>  <SMILES>  (1) 
COC1=CC2=NNN=C2C=C1C(=O)NCC1CCCN1CC=C

>  <SYNONYMS>  (1) 
Alizaprida; Alizapridum

$$$$
