1414
     RDKit          2D

 36 37  0  0  1  0  0  0  0  0999 V2000
    5.2224   -1.3649    0.0000 S   0  0  0  0  0  0  0  0  0  0  0  0
    7.3510    0.4606    0.0000 O   0  0  0  0  0  0  0  0  0  0  0  0
    3.0791   -0.1274    0.0000 O   0  0  0  0  0  0  0  0  0  0  0  0
    4.5080    1.5227    0.0000 O   0  0  0  0  0  0  0  0  0  0  0  0
    5.9370    1.5227    0.0000 O   0  0  0  0  0  0  0  0  0  0  0  0
    8.3635   -0.5321    0.0000 O   0  0  0  0  0  0  0  0  0  0  0  0
    2.3645    1.1101    0.0000 O   0  0  0  0  0  0  0  0  0  0  0  0
    5.9370   -0.1274    0.0000 N   0  0  0  0  0  0  0  0  0  0  0  0
    7.3510   -1.5404    0.0000 N   0  0  0  0  0  0  0  0  0  0  0  0
   10.3252   -1.4892    0.0000 N   0  0  0  0  0  0  0  0  0  0  0  0
    5.9370   -0.9524    0.0000 C   0  0  0  0  0  0  0  0  0  0  0  0
    6.7688   -0.9558    0.0000 C   0  0  0  0  0  0  0  0  0  0  0  0
    6.7688   -0.1239    0.0000 C   0  0  0  0  0  0  0  0  0  0  0  0
    5.2224    0.2851    0.0000 C   0  0  0  0  0  0  0  0  0  0  0  0
    4.5080   -0.1274    0.0000 C   0  0  0  0  0  0  0  0  0  0  0  0
    4.5080   -0.9524    0.0000 C   0  0  0  0  0  0  0  0  0  0  0  0
    3.7935    0.2851    0.0000 C   0  0  0  0  0  0  0  0  0  0  0  0
    5.2224    1.1101    0.0000 C   0  0  0  0  0  0  0  0  0  0  0  0
    8.1483   -1.3284    0.0000 C   0  0  0  0  0  0  0  0  0  0  0  0
    8.7305   -1.9131    0.0000 C   0  0  0  0  0  0  0  0  0  0  0  0
    2.3645    0.2851    0.0000 C   0  0  0  0  0  0  0  0  0  0  0  0
    9.5278   -1.7012    0.0000 C   0  0  0  0  0  0  0  0  0  0  0  0
    1.6500   -0.1274    0.0000 C   0  0  0  0  0  0  0  0  0  0  0  0
    0.0000    0.0000    0.0000 H   0  0  0  0  0  0  0  0  0  0  0  0
    0.0000    0.0000    0.0000 H   0  0  0  0  0  0  0  0  0  0  0  0
    0.0000    0.0000    0.0000 H   0  0  0  0  0  0  0  0  0  0  0  0
    0.0000    0.0000    0.0000 H   0  0  0  0  0  0  0  0  0  0  0  0
    0.0000    0.0000    0.0000 H   0  0  0  0  0  0  0  0  0  0  0  0
    0.0000    0.0000    0.0000 H   0  0  0  0  0  0  0  0  0  0  0  0
    0.0000    0.0000    0.0000 H   0  0  0  0  0  0  0  0  0  0  0  0
    0.0000    0.0000    0.0000 H   0  0  0  0  0  0  0  0  0  0  0  0
    0.0000    0.0000    0.0000 H   0  0  0  0  0  0  0  0  0  0  0  0
    0.0000    0.0000    0.0000 H   0  0  0  0  0  0  0  0  0  0  0  0
    0.0000    0.0000    0.0000 H   0  0  0  0  0  0  0  0  0  0  0  0
    0.0000    0.0000    0.0000 H   0  0  0  0  0  0  0  0  0  0  0  0
    0.0000    0.0000    0.0000 H   0  0  0  0  0  0  0  0  0  0  0  0
  1 11  1  0
  1 16  1  0
  2 13  2  0
  3 17  1  0
  3 21  1  0
  4 18  1  0
  5 18  2  0
  6 19  2  0
  7 21  2  0
  8 11  1  0
  8 13  1  0
  8 14  1  0
 12  9  1  6
  9 19  1  0
 10 22  3  0
 11 12  1  0
 12 13  1  0
 14 15  2  0
 14 18  1  0
 15 16  1  0
 15 17  1  0
 19 20  1  0
 20 22  1  0
 21 23  1  0
  4 24  1  0
  9 25  1  0
 11 26  1  6
 12 27  1  0
 16 28  1  0
 16 29  1  0
 17 30  1  0
 17 31  1  0
 20 32  1  0
 20 33  1  0
 23 34  1  0
 23 35  1  0
 23 36  1  0
M  END
>  <ALOGPS_LOGP>  (1) 
-0.52

>  <ALOGPS_LOGS>  (1) 
-2.15

>  <ALOGPS_SOLUBILITY>  (1) 
2.43e+00 g/l

>  <DATABASE_ID>  (1) 
DB01414

>  <DATABASE_NAME>  (1) 
drugbank

>  <DRUGBANK_ID>  (1) 
DB01414

>  <DRUG_GROUPS>  (1) 
approved

>  <EXACT_MASS>  (1) 
339.052505853

>  <FORMULA>  (1) 
C13H13N3O6S

>  <GENERIC_NAME>  (1) 
Cefacetrile

>  <INCHI_IDENTIFIER>  (1) 
InChI=1S/C13H13N3O6S/c1-6(17)22-4-7-5-23-12-9(15-8(18)2-3-14)11(19)16(12)10(7)13(20)21/h9,12H,2,4-5H2,1H3,(H,15,18)(H,20,21)/t9-,12-/m1/s1

>  <INCHI_KEY>  (1) 
RRYMAQUWDLIUPV-BXKDBHETSA-N

>  <INTERNATIONAL_BRANDS>  (1) 
Celospor; Celtol

>  <JCHEM_ACCEPTOR_COUNT>  (1) 
6

>  <JCHEM_AVERAGE_POLARIZABILITY>  (1) 
31.324019603805198

>  <JCHEM_BIOAVAILABILITY>  (1) 
1

>  <JCHEM_DONOR_COUNT>  (1) 
2

>  <JCHEM_FORMAL_CHARGE>  (1) 
0

>  <JCHEM_GHOSE_FILTER>  (1) 
0

>  <JCHEM_IUPAC>  (1) 
(6R,7R)-3-[(acetyloxy)methyl]-7-(2-cyanoacetamido)-8-oxo-5-thia-1-azabicyclo[4.2.0]oct-2-ene-2-carboxylic acid

>  <JCHEM_LOGP>  (1) 
-1.780770973333333

>  <JCHEM_MDDR_LIKE_RULE>  (1) 
0

>  <JCHEM_NUMBER_OF_RINGS>  (1) 
2

>  <JCHEM_PHYSIOLOGICAL_CHARGE>  (1) 
-2

>  <JCHEM_PKA>  (1) 
6.224834187417505

>  <JCHEM_PKA_STRONGEST_ACIDIC>  (1) 
3.3054466250890515

>  <JCHEM_PKA_STRONGEST_BASIC>  (1) 
-6.2268926534234135

>  <JCHEM_POLAR_SURFACE_AREA>  (1) 
136.8

>  <JCHEM_REFRACTIVITY>  (1) 
77.50560000000002

>  <JCHEM_ROTATABLE_BOND_COUNT>  (1) 
6

>  <JCHEM_RULE_OF_FIVE>  (1) 
1

>  <JCHEM_TRADITIONAL_IUPAC>  (1) 
cefacetrile

>  <JCHEM_VEBER_RULE>  (1) 
0

>  <MOLECULAR_WEIGHT>  (1) 
339.324

>  <SMILES>  (1) 
[H][C@]12SCC(COC(C)=O)=C(N1C(=O)[C@H]2NC(=O)CC#N)C(O)=O

>  <SYNONYMS>  (1) 
Cefacetrilo; Cefacetrilum; Cephacetrile

$$$$
