 
     RDKit          2D

140148  0  0  1  0  0  0  0  0999 V2000
   11.7501  -10.4231    0.0000 C   0  0  0  0  0  0  0  0  0  0  0  0
   11.7535   -9.5952    0.0000 C   0  0  0  0  0  0  0  0  0  0  0  0
   11.0394   -9.1789    0.0000 C   0  0  0  0  0  0  0  0  0  0  0  0
   10.3219   -9.5893    0.0000 C   0  0  0  0  0  0  0  0  0  0  0  0
   10.3185  -10.4171    0.0000 C   0  0  0  0  0  0  0  0  0  0  0  0
   11.0325  -10.8334    0.0000 O   0  0  0  0  0  0  0  0  0  0  0  0
   11.0428   -8.3556    0.0000 O   0  0  0  0  0  0  0  0  0  0  0  0
    9.6072   -9.1727    0.0000 O   0  0  0  0  0  0  0  0  0  0  0  0
    9.5984  -10.8289    0.0000 C   0  0  0  0  0  0  0  0  0  0  0  0
   14.6157   -9.5952    0.0000 C   0  0  0  0  0  0  0  0  0  0  0  0
   13.9131   -9.1818    0.0000 O   0  0  0  0  0  0  0  0  0  0  0  0
   13.1692   -9.5952    0.0000 C   0  0  0  0  0  0  0  0  0  0  0  0
   13.1692  -10.4218    0.0000 C   0  0  0  0  0  0  0  0  0  0  0  0
   13.8718  -10.8350    0.0000 C   0  0  0  0  0  0  0  0  0  0  0  0
   14.6157  -10.4218    0.0000 C   0  0  0  0  0  0  0  0  0  0  0  0
   22.3855   -9.2231    0.0000 C   0  0  0  0  0  0  0  0  0  0  0  0
   21.6829   -9.6365    0.0000 C   0  0  0  0  0  0  0  0  0  0  0  0
   22.3855   -8.3967    0.0000 C   0  0  0  0  0  0  0  0  0  0  0  0
   20.9803   -9.2231    0.0000 C   0  0  0  0  0  0  0  0  0  0  0  0
   21.6829  -10.4218    0.0000 C   0  0  0  0  0  0  0  0  0  0  0  0
   21.6829   -8.0246    0.0000 C   0  0  0  0  0  0  0  0  0  0  0  0
   22.3442   -7.6940    0.0000 C   0  0  0  0  0  0  0  0  0  0  0  0
   20.2778   -9.5952    0.0000 C   0  0  0  0  0  0  0  0  0  0  0  0
   20.9803   -8.3967    0.0000 C   0  0  0  0  0  0  0  0  0  0  0  0
   20.9803  -10.8350    0.0000 C   0  0  0  0  0  0  0  0  0  0  0  0
   20.2778  -10.4218    0.0000 C   0  0  0  0  0  0  0  0  0  0  0  0
   19.5751   -9.2231    0.0000 C   0  0  0  0  0  0  0  0  0  0  0  0
   20.2778   -8.8512    0.0000 C   0  0  0  0  0  0  0  0  0  0  0  0
   19.5751  -10.8350    0.0000 C   0  0  0  0  0  0  0  0  0  0  0  0
   18.8725   -9.5952    0.0000 C   0  0  0  0  0  0  0  0  0  0  0  0
   18.8725  -10.4218    0.0000 C   0  0  0  0  0  0  0  0  0  0  0  0
   21.6829   -7.1980    0.0000 O   0  0  0  0  0  0  0  0  0  0  0  0
   23.1294   -9.4712    0.0000 C   0  0  0  0  0  0  0  0  0  0  0  0
   23.6252   -8.8512    0.0000 C   0  0  0  0  0  0  0  0  0  0  0  0
   23.1708   -8.1899    0.0000 C   0  0  0  0  0  0  0  0  0  0  0  0
   23.4186   -7.4048    0.0000 C   0  0  0  0  0  0  0  0  0  0  0  0
   24.2039   -7.1567    0.0000 C   0  0  0  0  0  0  0  0  0  0  0  0
   24.2039   -6.3302    0.0000 C   0  0  0  0  0  0  0  0  0  0  0  0
   23.4186   -6.0409    0.0000 O   0  0  0  0  0  0  0  0  0  0  0  0
   22.9227   -6.7435    0.0000 C   0  0  0  0  0  0  0  0  0  0  0  0
   24.8652   -5.8342    0.0000 O   0  0  0  0  0  0  0  0  0  0  0  0
   18.1700  -10.8350    0.0000 O   0  0  0  0  0  0  0  0  0  0  0  0
   17.4674  -10.4218    0.0000 C   0  0  0  0  0  0  0  0  0  0  0  0
   17.4674   -9.5952    0.0000 C   0  0  0  0  0  0  0  0  0  0  0  0
   16.7234   -9.1818    0.0000 C   0  0  0  0  0  0  0  0  0  0  0  0
   16.0209   -9.5952    0.0000 C   0  0  0  0  0  0  0  0  0  0  0  0
   16.0209  -10.4218    0.0000 C   0  0  0  0  0  0  0  0  0  0  0  0
   16.7234  -10.8350    0.0000 O   0  0  0  0  0  0  0  0  0  0  0  0
   16.7234   -8.3553    0.0000 O   0  0  0  0  0  0  0  0  0  0  0  0
   15.3183   -9.1818    0.0000 O   0  0  0  0  0  0  0  0  0  0  0  0
   15.3183  -10.8350    0.0000 C   0  0  0  0  0  0  0  0  0  0  0  0
   12.4568   -9.1759    0.0000 C   0  0  0  0  0  0  0  0  0  0  0  0
   12.4518  -10.8321    0.0000 O   0  0  0  0  0  0  0  0  0  0  0  0
   13.8617  -11.6615    0.0000 O   0  0  0  0  0  0  0  0  0  0  0  0
    9.6072   -8.3462    0.0000 C   0  0  0  0  0  0  0  0  0  0  0  0
   10.3248   -7.9317    0.0000 O   0  0  0  0  0  0  0  0  0  0  0  0
   10.3248   -7.1052    0.0000 C   0  0  0  0  0  0  0  0  0  0  0  0
    9.6089   -6.6919    0.0000 C   0  0  0  0  0  0  0  0  0  0  0  0
    8.8914   -7.1063    0.0000 C   0  0  0  0  0  0  0  0  0  0  0  0
    8.8914   -7.9328    0.0000 C   0  0  0  0  0  0  0  0  0  0  0  0
    8.1647   -6.6865    0.0000 O   0  0  0  0  0  0  0  0  0  0  0  0
   11.0308   -6.6977    0.0000 C   0  0  0  0  0  0  0  0  0  0  0  0
    8.1565   -8.3572    0.0000 O   0  0  0  0  0  0  0  0  0  0  0  0
    9.6090   -5.8756    0.0000 O   0  0  0  0  0  0  0  0  0  0  0  0
   11.7405   -7.1075    0.0000 O   0  0  0  0  0  0  0  0  0  0  0  0
   22.3855  -10.0497    0.0000 O   0  0  0  0  0  0  0  0  0  0  0  0
    0.0000    0.0000    0.0000 H   0  0  0  0  0  0  0  0  0  0  0  0
    0.0000    0.0000    0.0000 H   0  0  0  0  0  0  0  0  0  0  0  0
    0.0000    0.0000    0.0000 H   0  0  0  0  0  0  0  0  0  0  0  0
    0.0000    0.0000    0.0000 H   0  0  0  0  0  0  0  0  0  0  0  0
    0.0000    0.0000    0.0000 H   0  0  0  0  0  0  0  0  0  0  0  0
    0.0000    0.0000    0.0000 H   0  0  0  0  0  0  0  0  0  0  0  0
    0.0000    0.0000    0.0000 H   0  0  0  0  0  0  0  0  0  0  0  0
    0.0000    0.0000    0.0000 H   0  0  0  0  0  0  0  0  0  0  0  0
    0.0000    0.0000    0.0000 H   0  0  0  0  0  0  0  0  0  0  0  0
    0.0000    0.0000    0.0000 H   0  0  0  0  0  0  0  0  0  0  0  0
    0.0000    0.0000    0.0000 H   0  0  0  0  0  0  0  0  0  0  0  0
    0.0000    0.0000    0.0000 H   0  0  0  0  0  0  0  0  0  0  0  0
    0.0000    0.0000    0.0000 H   0  0  0  0  0  0  0  0  0  0  0  0
    0.0000    0.0000    0.0000 H   0  0  0  0  0  0  0  0  0  0  0  0
    0.0000    0.0000    0.0000 H   0  0  0  0  0  0  0  0  0  0  0  0
    0.0000    0.0000    0.0000 H   0  0  0  0  0  0  0  0  0  0  0  0
    0.0000    0.0000    0.0000 H   0  0  0  0  0  0  0  0  0  0  0  0
    0.0000    0.0000    0.0000 H   0  0  0  0  0  0  0  0  0  0  0  0
    0.0000    0.0000    0.0000 H   0  0  0  0  0  0  0  0  0  0  0  0
    0.0000    0.0000    0.0000 H   0  0  0  0  0  0  0  0  0  0  0  0
    0.0000    0.0000    0.0000 H   0  0  0  0  0  0  0  0  0  0  0  0
    0.0000    0.0000    0.0000 H   0  0  0  0  0  0  0  0  0  0  0  0
    0.0000    0.0000    0.0000 H   0  0  0  0  0  0  0  0  0  0  0  0
    0.0000    0.0000    0.0000 H   0  0  0  0  0  0  0  0  0  0  0  0
    0.0000    0.0000    0.0000 H   0  0  0  0  0  0  0  0  0  0  0  0
    0.0000    0.0000    0.0000 H   0  0  0  0  0  0  0  0  0  0  0  0
    0.0000    0.0000    0.0000 H   0  0  0  0  0  0  0  0  0  0  0  0
    0.0000    0.0000    0.0000 H   0  0  0  0  0  0  0  0  0  0  0  0
    0.0000    0.0000    0.0000 H   0  0  0  0  0  0  0  0  0  0  0  0
    0.0000    0.0000    0.0000 H   0  0  0  0  0  0  0  0  0  0  0  0
    0.0000    0.0000    0.0000 H   0  0  0  0  0  0  0  0  0  0  0  0
    0.0000    0.0000    0.0000 H   0  0  0  0  0  0  0  0  0  0  0  0
    0.0000    0.0000    0.0000 H   0  0  0  0  0  0  0  0  0  0  0  0
    0.0000    0.0000    0.0000 H   0  0  0  0  0  0  0  0  0  0  0  0
    0.0000    0.0000    0.0000 H   0  0  0  0  0  0  0  0  0  0  0  0
    0.0000    0.0000    0.0000 H   0  0  0  0  0  0  0  0  0  0  0  0
    0.0000    0.0000    0.0000 H   0  0  0  0  0  0  0  0  0  0  0  0
    0.0000    0.0000    0.0000 H   0  0  0  0  0  0  0  0  0  0  0  0
    0.0000    0.0000    0.0000 H   0  0  0  0  0  0  0  0  0  0  0  0
    0.0000    0.0000    0.0000 H   0  0  0  0  0  0  0  0  0  0  0  0
    0.0000    0.0000    0.0000 H   0  0  0  0  0  0  0  0  0  0  0  0
    0.0000    0.0000    0.0000 H   0  0  0  0  0  0  0  0  0  0  0  0
    0.0000    0.0000    0.0000 H   0  0  0  0  0  0  0  0  0  0  0  0
    0.0000    0.0000    0.0000 H   0  0  0  0  0  0  0  0  0  0  0  0
    0.0000    0.0000    0.0000 H   0  0  0  0  0  0  0  0  0  0  0  0
    0.0000    0.0000    0.0000 H   0  0  0  0  0  0  0  0  0  0  0  0
    0.0000    0.0000    0.0000 H   0  0  0  0  0  0  0  0  0  0  0  0
    0.0000    0.0000    0.0000 H   0  0  0  0  0  0  0  0  0  0  0  0
    0.0000    0.0000    0.0000 H   0  0  0  0  0  0  0  0  0  0  0  0
    0.0000    0.0000    0.0000 H   0  0  0  0  0  0  0  0  0  0  0  0
    0.0000    0.0000    0.0000 H   0  0  0  0  0  0  0  0  0  0  0  0
    0.0000    0.0000    0.0000 H   0  0  0  0  0  0  0  0  0  0  0  0
    0.0000    0.0000    0.0000 H   0  0  0  0  0  0  0  0  0  0  0  0
    0.0000    0.0000    0.0000 H   0  0  0  0  0  0  0  0  0  0  0  0
    0.0000    0.0000    0.0000 H   0  0  0  0  0  0  0  0  0  0  0  0
    0.0000    0.0000    0.0000 H   0  0  0  0  0  0  0  0  0  0  0  0
    0.0000    0.0000    0.0000 H   0  0  0  0  0  0  0  0  0  0  0  0
    0.0000    0.0000    0.0000 H   0  0  0  0  0  0  0  0  0  0  0  0
    0.0000    0.0000    0.0000 H   0  0  0  0  0  0  0  0  0  0  0  0
    0.0000    0.0000    0.0000 H   0  0  0  0  0  0  0  0  0  0  0  0
    0.0000    0.0000    0.0000 H   0  0  0  0  0  0  0  0  0  0  0  0
    0.0000    0.0000    0.0000 H   0  0  0  0  0  0  0  0  0  0  0  0
    0.0000    0.0000    0.0000 H   0  0  0  0  0  0  0  0  0  0  0  0
    0.0000    0.0000    0.0000 H   0  0  0  0  0  0  0  0  0  0  0  0
    0.0000    0.0000    0.0000 H   0  0  0  0  0  0  0  0  0  0  0  0
    0.0000    0.0000    0.0000 H   0  0  0  0  0  0  0  0  0  0  0  0
    0.0000    0.0000    0.0000 H   0  0  0  0  0  0  0  0  0  0  0  0
    0.0000    0.0000    0.0000 H   0  0  0  0  0  0  0  0  0  0  0  0
    0.0000    0.0000    0.0000 H   0  0  0  0  0  0  0  0  0  0  0  0
    0.0000    0.0000    0.0000 H   0  0  0  0  0  0  0  0  0  0  0  0
    0.0000    0.0000    0.0000 H   0  0  0  0  0  0  0  0  0  0  0  0
    0.0000    0.0000    0.0000 H   0  0  0  0  0  0  0  0  0  0  0  0
    0.0000    0.0000    0.0000 H   0  0  0  0  0  0  0  0  0  0  0  0
    0.0000    0.0000    0.0000 H   0  0  0  0  0  0  0  0  0  0  0  0
  1  2  1  0
  2  3  1  0
  3  4  1  0
  4  5  1  0
  5  6  1  0
  1  6  1  0
  3  7  1  1
  4  8  1  1
  5  9  1  6
 10 11  1  0
 11 12  1  0
 12 13  1  0
 13 14  1  0
 14 15  1  0
 10 15  1  0
 16 17  1  0
 16 18  1  0
 17 19  1  0
 17 20  1  0
 18 21  1  0
 18 22  1  1
 19 23  1  0
 19 24  1  0
 20 25  1  0
 23 26  1  0
 23 27  1  0
 23 28  1  1
 26 29  1  0
 27 30  1  0
 29 31  1  0
 21 24  1  0
 25 26  1  0
 30 31  1  0
 21 32  1  1
 16 33  1  0
 33 34  1  0
 34 35  1  0
 18 35  1  0
 35 36  1  1
 36 37  2  0
 37 38  1  0
 38 39  1  0
 39 40  1  0
 36 40  1  0
 38 41  2  0
 43 42  1  1
 43 44  1  0
 44 45  1  0
 45 46  1  0
 46 47  1  0
 47 48  1  0
 43 48  1  0
 31 42  1  1
 45 49  1  1
 46 50  1  1
 47 51  1  6
 10 50  1  1
 12 52  1  1
 13 53  1  6
 14 54  1  1
  1 53  1  1
 55  8  1  6
 55 56  1  0
 56 57  1  0
 57 58  1  0
 58 59  1  0
 59 60  1  0
 55 60  1  0
 59 61  1  1
 57 62  1  1
 60 63  1  6
 58 64  1  6
 62 65  1  0
 16 66  1  1
  1 67  1  0
  2 68  1  0
  2 69  1  0
  3 70  1  0
  4 71  1  0
  5 72  1  0
  7 73  1  0
  9 74  1  0
  9 75  1  0
  9 76  1  0
 10 77  1  0
 12 78  1  0
 13 79  1  0
 14 80  1  0
 15 81  1  0
 15 82  1  0
 17 83  1  1
 19 84  1  6
 20 85  1  0
 20 86  1  0
 21 87  1  0
 22 88  1  0
 22 89  1  0
 22 90  1  0
 24 91  1  0
 24 92  1  0
 25 93  1  0
 25 94  1  0
 26 95  1  1
 27 96  1  0
 27 97  1  0
 28 98  1  0
 28 99  1  0
 28100  1  0
 29101  1  0
 29102  1  0
 30103  1  0
 30104  1  0
 31105  1  0
 32106  1  0
 33107  1  0
 33108  1  0
 34109  1  0
 34110  1  0
 35111  1  0
 37112  1  0
 40113  1  0
 40114  1  0
 43115  1  0
 44116  1  0
 44117  1  0
 45118  1  0
 46119  1  0
 47120  1  0
 49121  1  0
 51122  1  0
 51123  1  0
 51124  1  0
 52125  1  0
 52126  1  0
 52127  1  0
 54128  1  0
 55129  1  0
 57130  1  0
 58131  1  0
 59132  1  0
 60133  1  0
 61134  1  0
 62135  1  0
 62136  1  0
 63137  1  0
 64138  1  0
 65139  1  0
 66140  1  0
M  END
>  <ALOGPS_LOGP>  (1) 
-0.49

>  <ALOGPS_LOGS>  (1) 
-3.30

>  <ALOGPS_SOLUBILITY>  (1) 
4.68e-01 g/l

>  <DATABASE_ID>  (1) 
DB01078

>  <DATABASE_NAME>  (1) 
drugbank

>  <DRUGBANK_ID>  (1) 
DB01078

>  <DRUG_GROUPS>  (1) 
approved

>  <EXACT_MASS>  (1) 
942.482430186

>  <FORMULA>  (1) 
C47H74O19

>  <GENERIC_NAME>  (1) 
Deslanoside

>  <INCHI_IDENTIFIER>  (1) 
InChI=1S/C47H74O19/c1-20-41(64-36-16-30(50)42(21(2)60-36)65-37-17-31(51)43(22(3)61-37)66-44-40(56)39(55)38(54)32(18-48)63-44)29(49)15-35(59-20)62-25-8-10-45(4)24(13-25)6-7-27-28(45)14-33(52)46(5)26(9-11-47(27,46)57)23-12-34(53)58-19-23/h12,20-22,24-33,35-44,48-52,54-57H,6-11,13-19H2,1-5H3/t20-,21-,22-,24-,25+,26-,27-,28+,29+,30+,31+,32-,33-,35+,36+,37+,38-,39+,40-,41-,42-,43-,44+,45+,46+,47+/m1/s1

>  <INCHI_KEY>  (1) 
OBATZBGFDSVCJD-LALPQLPRSA-N

>  <JCHEM_ACCEPTOR_COUNT>  (1) 
18

>  <JCHEM_AVERAGE_POLARIZABILITY>  (1) 
100.64819038811822

>  <JCHEM_BIOAVAILABILITY>  (1) 
0

>  <JCHEM_DONOR_COUNT>  (1) 
9

>  <JCHEM_FORMAL_CHARGE>  (1) 
0

>  <JCHEM_GHOSE_FILTER>  (1) 
0

>  <JCHEM_IUPAC>  (1) 
4-[(1S,2S,5S,7R,10R,11S,14R,15S,16R)-11,16-dihydroxy-5-{[(2R,4S,5S,6R)-4-hydroxy-5-{[(2S,4S,5S,6R)-4-hydroxy-5-{[(2S,4S,5S,6R)-4-hydroxy-6-methyl-5-{[(2S,3R,4S,5S,6R)-3,4,5-trihydroxy-6-(hydroxymethyl)oxan-2-yl]oxy}oxan-2-yl]oxy}-6-methyloxan-2-yl]oxy}-6-methyloxan-2-yl]oxy}-2,15-dimethyltetracyclo[8.7.0.0²,⁷.0¹¹,¹⁵]heptadecan-14-yl]-2,5-dihydrofuran-2-one

>  <JCHEM_LOGP>  (1) 
0.5958450263333354

>  <JCHEM_MDDR_LIKE_RULE>  (1) 
1

>  <JCHEM_NUMBER_OF_RINGS>  (1) 
9

>  <JCHEM_PHYSIOLOGICAL_CHARGE>  (1) 
0

>  <JCHEM_PKA>  (1) 
12.183381612717266

>  <JCHEM_PKA_STRONGEST_ACIDIC>  (1) 
7.15111243257494

>  <JCHEM_PKA_STRONGEST_BASIC>  (1) 
-3.198899389971059

>  <JCHEM_POLAR_SURFACE_AREA>  (1) 
282.21

>  <JCHEM_REFRACTIVITY>  (1) 
225.64610000000008

>  <JCHEM_ROTATABLE_BOND_COUNT>  (1) 
10

>  <JCHEM_RULE_OF_FIVE>  (1) 
0

>  <JCHEM_TRADITIONAL_IUPAC>  (1) 
deslanoside

>  <JCHEM_VEBER_RULE>  (1) 
0

>  <MOLECULAR_WEIGHT>  (1) 
943.0791

>  <SECONDARY_ACCESSION_NUMBERS>  (1) 
APRD00909

>  <SMILES>  (1) 
C[C@H]1O[C@H](C[C@H](O)[C@@H]1O[C@H]1C[C@H](O)[C@H](O[C@H]2C[C@H](O)[C@H](O[C@@H]3O[C@H](CO)[C@@H](O)[C@H](O)[C@H]3O)[C@@H](C)O2)[C@@H](C)O1)O[C@H]1CC[C@@]2(C)[C@H](CC[C@@H]3[C@@H]2C[C@@H](O)[C@]2(C)[C@H](CC[C@]32O)C2=CC(=O)OC2)C1

>  <SYNONYMS>  (1) 
Deacetyllanatoside C

$$$$
