1193
     RDKit          2D

 52 52  0  0  1  0  0  0  0  0999 V2000
    5.9370    1.4438    0.0000 O   0  0  0  0  0  0  0  0  0  0  0  0
    4.5080    2.2688    0.0000 O   0  0  0  0  0  0  0  0  0  0  0  0
    6.6515    2.6813    0.0000 O   0  0  0  0  0  0  0  0  0  0  0  0
    8.0804   -1.4438    0.0000 O   0  0  0  0  0  0  0  0  0  0  0  0
    3.0791    1.4438    0.0000 N   0  0  0  0  0  0  0  0  0  0  0  0
    8.7949   -0.2063    0.0000 N   0  0  0  0  0  0  0  0  0  0  0  0
    4.5080    1.4438    0.0000 C   0  0  0  0  0  0  0  0  0  0  0  0
    3.7935    1.0313    0.0000 C   0  0  0  0  0  0  0  0  0  0  0  0
    2.3645    1.0313    0.0000 C   0  0  0  0  0  0  0  0  0  0  0  0
    5.2224    1.0313    0.0000 C   0  0  0  0  0  0  0  0  0  0  0  0
    1.6500    1.4438    0.0000 C   0  0  0  0  0  0  0  0  0  0  0  0
    2.3645    0.2063    0.0000 C   0  0  0  0  0  0  0  0  0  0  0  0
    6.6515    1.0313    0.0000 C   0  0  0  0  0  0  0  0  0  0  0  0
    7.3659    1.4438    0.0000 C   0  0  0  0  0  0  0  0  0  0  0  0
    8.0804    0.2063    0.0000 C   0  0  0  0  0  0  0  0  0  0  0  0
    8.0804    1.0313    0.0000 C   0  0  0  0  0  0  0  0  0  0  0  0
    6.6515    0.2063    0.0000 C   0  0  0  0  0  0  0  0  0  0  0  0
    7.3659   -0.2063    0.0000 C   0  0  0  0  0  0  0  0  0  0  0  0
    9.5094   -1.4438    0.0000 C   0  0  0  0  0  0  0  0  0  0  0  0
    9.5094   -2.2688    0.0000 C   0  0  0  0  0  0  0  0  0  0  0  0
    7.3659    2.2688    0.0000 C   0  0  0  0  0  0  0  0  0  0  0  0
    8.7949   -1.0313    0.0000 C   0  0  0  0  0  0  0  0  0  0  0  0
   10.2239   -2.6813    0.0000 C   0  0  0  0  0  0  0  0  0  0  0  0
    8.0804    2.6813    0.0000 C   0  0  0  0  0  0  0  0  0  0  0  0
    0.0000    0.0000    0.0000 H   0  0  0  0  0  0  0  0  0  0  0  0
    0.0000    0.0000    0.0000 H   0  0  0  0  0  0  0  0  0  0  0  0
    0.0000    0.0000    0.0000 H   0  0  0  0  0  0  0  0  0  0  0  0
    0.0000    0.0000    0.0000 H   0  0  0  0  0  0  0  0  0  0  0  0
    0.0000    0.0000    0.0000 H   0  0  0  0  0  0  0  0  0  0  0  0
    0.0000    0.0000    0.0000 H   0  0  0  0  0  0  0  0  0  0  0  0
    0.0000    0.0000    0.0000 H   0  0  0  0  0  0  0  0  0  0  0  0
    0.0000    0.0000    0.0000 H   0  0  0  0  0  0  0  0  0  0  0  0
    0.0000    0.0000    0.0000 H   0  0  0  0  0  0  0  0  0  0  0  0
    0.0000    0.0000    0.0000 H   0  0  0  0  0  0  0  0  0  0  0  0
    0.0000    0.0000    0.0000 H   0  0  0  0  0  0  0  0  0  0  0  0
    0.0000    0.0000    0.0000 H   0  0  0  0  0  0  0  0  0  0  0  0
    0.0000    0.0000    0.0000 H   0  0  0  0  0  0  0  0  0  0  0  0
    0.0000    0.0000    0.0000 H   0  0  0  0  0  0  0  0  0  0  0  0
    0.0000    0.0000    0.0000 H   0  0  0  0  0  0  0  0  0  0  0  0
    0.0000    0.0000    0.0000 H   0  0  0  0  0  0  0  0  0  0  0  0
    0.0000    0.0000    0.0000 H   0  0  0  0  0  0  0  0  0  0  0  0
    0.0000    0.0000    0.0000 H   0  0  0  0  0  0  0  0  0  0  0  0
    0.0000    0.0000    0.0000 H   0  0  0  0  0  0  0  0  0  0  0  0
    0.0000    0.0000    0.0000 H   0  0  0  0  0  0  0  0  0  0  0  0
    0.0000    0.0000    0.0000 H   0  0  0  0  0  0  0  0  0  0  0  0
    0.0000    0.0000    0.0000 H   0  0  0  0  0  0  0  0  0  0  0  0
    0.0000    0.0000    0.0000 H   0  0  0  0  0  0  0  0  0  0  0  0
    0.0000    0.0000    0.0000 H   0  0  0  0  0  0  0  0  0  0  0  0
    0.0000    0.0000    0.0000 H   0  0  0  0  0  0  0  0  0  0  0  0
    0.0000    0.0000    0.0000 H   0  0  0  0  0  0  0  0  0  0  0  0
    0.0000    0.0000    0.0000 H   0  0  0  0  0  0  0  0  0  0  0  0
    0.0000    0.0000    0.0000 H   0  0  0  0  0  0  0  0  0  0  0  0
  1 10  1  0
  1 13  1  0
  2  7  1  0
  3 21  2  0
  4 22  2  0
  5  8  1  0
  5  9  1  0
  6 15  1  0
  6 22  1  0
  7  8  1  0
  7 10  1  0
  9 11  1  0
  9 12  1  0
 13 14  2  0
 13 17  1  0
 14 16  1  0
 14 21  1  0
 15 16  2  0
 15 18  1  0
 17 18  2  0
 19 20  1  0
 19 22  1  0
 20 23  1  0
 21 24  1  0
  2 25  1  0
  5 26  1  0
  6 27  1  0
  7 28  1  0
  8 29  1  0
  8 30  1  0
  9 31  1  0
 10 32  1  0
 10 33  1  0
 11 34  1  0
 11 35  1  0
 11 36  1  0
 12 37  1  0
 12 38  1  0
 12 39  1  0
 16 40  1  0
 17 41  1  0
 18 42  1  0
 19 43  1  0
 19 44  1  0
 20 45  1  0
 20 46  1  0
 23 47  1  0
 23 48  1  0
 23 49  1  0
 24 50  1  0
 24 51  1  0
 24 52  1  0
M  END
>  <ALOGPS_LOGP>  (1) 
1.43

>  <ALOGPS_LOGS>  (1) 
-3.29

>  <ALOGPS_SOLUBILITY>  (1) 
1.72e-01 g/l

>  <DATABASE_ID>  (1) 
DB01193

>  <DATABASE_NAME>  (1) 
drugbank

>  <DRUGBANK_ID>  (1) 
DB01193

>  <DRUG_GROUPS>  (1) 
approved

>  <EXACT_MASS>  (1) 
336.204907394

>  <FORMULA>  (1) 
C18H28N2O4

>  <GENERIC_NAME>  (1) 
Acebutolol

>  <INCHI_IDENTIFIER>  (1) 
InChI=1S/C18H28N2O4/c1-5-6-18(23)20-14-7-8-17(16(9-14)13(4)21)24-11-15(22)10-19-12(2)3/h7-9,12,15,19,22H,5-6,10-11H2,1-4H3,(H,20,23)

>  <INCHI_KEY>  (1) 
GOEMGAFJFRBGGG-UHFFFAOYSA-N

>  <INTERNATIONAL_BRANDS>  (1) 
Prent

>  <JCHEM_ACCEPTOR_COUNT>  (1) 
5

>  <JCHEM_AVERAGE_POLARIZABILITY>  (1) 
38.506102083275465

>  <JCHEM_BIOAVAILABILITY>  (1) 
1

>  <JCHEM_DONOR_COUNT>  (1) 
3

>  <JCHEM_FORMAL_CHARGE>  (1) 
0

>  <JCHEM_GHOSE_FILTER>  (1) 
1

>  <JCHEM_IUPAC>  (1) 
N-(3-acetyl-4-{2-hydroxy-3-[(propan-2-yl)amino]propoxy}phenyl)butanamide

>  <JCHEM_LOGP>  (1) 
1.5346815706666663

>  <JCHEM_MDDR_LIKE_RULE>  (1) 
0

>  <JCHEM_NUMBER_OF_RINGS>  (1) 
1

>  <JCHEM_PHYSIOLOGICAL_CHARGE>  (1) 
1

>  <JCHEM_PKA>  (1) 
14.561117473592265

>  <JCHEM_PKA_STRONGEST_ACIDIC>  (1) 
13.912071129909538

>  <JCHEM_PKA_STRONGEST_BASIC>  (1) 
9.566244843597062

>  <JCHEM_POLAR_SURFACE_AREA>  (1) 
87.66

>  <JCHEM_REFRACTIVITY>  (1) 
94.8692

>  <JCHEM_ROTATABLE_BOND_COUNT>  (1) 
10

>  <JCHEM_RULE_OF_FIVE>  (1) 
1

>  <JCHEM_TRADITIONAL_IUPAC>  (1) 
acebutolol

>  <JCHEM_VEBER_RULE>  (1) 
0

>  <MOLECULAR_WEIGHT>  (1) 
336.4259

>  <PRODUCTS>  (1) 
Acebutolol; Acebutolol - 400 - Tab 400mg; Acebutolol Hydrochloride; Acebutolol-100-tab 100mg; Acebutolol-200 - Tab 200mg; Apo-acebutolol; Ava-acebutolol; Monitan 100; Monitan 200; Monitan 400; Monitan Tab 200mg; Monitan Tab 400mg; Mylan-acebutolol; Mylan-acebutolol (type S); Novo-acebutolol (type S); Nu-acebutolol - Tab 100mg; Nu-acebutolol - Tab 200mg; Nu-acebutolol - Tab 400mg; Penta-acebutolol Tablets; Rhotral 100; Rhotral 200; Rhotral 400; Sandoz Acebutolol; Sectral; Teva-acebutolol

>  <SALTS>  (1) 
Acebutolol Hydrochloride

>  <SECONDARY_ACCESSION_NUMBERS>  (1) 
APRD00772

>  <SMILES>  (1) 
CCCC(=O)NC1=CC(C(C)=O)=C(OCC(O)CNC(C)C)C=C1

>  <SYNONYMS>  (1) 
(Â±)-acebutolol; 3'-acetyl-4'-(2-hydroxy-3-(isopropylamino)propoxy)butyranilide; 5'-butyramido-2'-(2-hydroxy-3-isopropylaminopropoxy)acetophenone; Acebutololum; Acetobutolol; N-(3-acetyl-4-[2-hydroxy-3-(isopropylamino)propoxy]phenyl)butanamide; N-[3-acetyl-4-[2-hydroxy-3-[(1-methylethyl)amino]propoxy]phenyl]butanamide

$$$$
