
     RDKit          2D

 33 35  0  0  0  0  0  0  0  0999 V2000
    9.7382   -9.8080    0.0000 C   0  0  0  0  0  0  0  0  0  0  0  0
   10.5632   -9.8080    0.0000 N   0  0  0  0  0  0  0  0  0  0  0  0
    9.4833   -9.0233    0.0000 N   0  0  0  0  0  0  0  0  0  0  0  0
    2.8276  -10.0852    0.0000 N   0  0  0  0  0  0  0  0  0  0  0  0
   10.8182   -9.0233    0.0000 C   0  0  0  0  0  0  0  0  0  0  0  0
    5.9661   -9.0655    0.0000 C   0  0  0  0  0  0  0  0  0  0  0  0
   10.1507   -8.5384    0.0000 C   0  0  0  0  0  0  0  0  0  0  0  0
    8.6987   -8.7684    0.0000 N   0  0  0  0  0  0  0  0  0  0  0  0
    6.6335   -9.5504    0.0000 O   0  0  0  0  0  0  0  0  0  0  0  0
    6.2210   -8.2808    0.0000 C   0  0  0  0  0  0  0  0  0  0  0  0
    7.3010   -9.0655    0.0000 C   0  0  0  0  0  0  0  0  0  0  0  0
    8.0856   -9.3204    0.0000 C   0  0  0  0  0  0  0  0  0  0  0  0
    3.6122   -9.8303    0.0000 C   0  0  0  0  0  0  0  0  0  0  0  0
    7.0460   -8.2808    0.0000 C   0  0  0  0  0  0  0  0  0  0  0  0
    2.2145   -9.5332    0.0000 O   0  0  0  0  0  0  0  0  0  0  0  0
    5.1814   -9.3204    0.0000 C   0  0  0  0  0  0  0  0  0  0  0  0
    2.6561  -10.8923    0.0000 O   0  0  0  0  0  0  0  0  0  0  0  0
    9.2533  -10.4754    0.0000 O   0  0  0  0  0  0  0  0  0  0  0  0
   11.6028   -8.7684    0.0000 O   0  0  0  0  0  0  0  0  0  0  0  0
    4.2253  -10.3824    0.0000 C   0  0  0  0  0  0  0  0  0  0  0  0
    3.7837   -9.0233    0.0000 C   0  0  0  0  0  0  0  0  0  0  0  0
    5.0099  -10.1274    0.0000 C   0  0  0  0  0  0  0  0  0  0  0  0
    4.5683   -8.7684    0.0000 C   0  0  0  0  0  0  0  0  0  0  0  0
    0.0000    0.0000    0.0000 H   0  0  0  0  0  0  0  0  0  0  0  0
    0.0000    0.0000    0.0000 H   0  0  0  0  0  0  0  0  0  0  0  0
    0.0000    0.0000    0.0000 H   0  0  0  0  0  0  0  0  0  0  0  0
    0.0000    0.0000    0.0000 H   0  0  0  0  0  0  0  0  0  0  0  0
    0.0000    0.0000    0.0000 H   0  0  0  0  0  0  0  0  0  0  0  0
    0.0000    0.0000    0.0000 H   0  0  0  0  0  0  0  0  0  0  0  0
    0.0000    0.0000    0.0000 H   0  0  0  0  0  0  0  0  0  0  0  0
    0.0000    0.0000    0.0000 H   0  0  0  0  0  0  0  0  0  0  0  0
    0.0000    0.0000    0.0000 H   0  0  0  0  0  0  0  0  0  0  0  0
    0.0000    0.0000    0.0000 H   0  0  0  0  0  0  0  0  0  0  0  0
  2  1  1  0
  3  1  1  0
 18  1  2  0
  5  2  1  0
  7  3  1  0
  8  3  1  0
 13  4  1  0
 15  4  1  0
 17  4  2  0
 19  5  2  0
  7  5  1  0
  9  6  1  0
 16  6  1  0
 10  6  2  0
 12  8  2  3
 11  9  1  0
 14 10  1  0
 12 11  1  0
 14 11  2  0
 21 13  2  0
 20 13  1  0
 22 16  1  0
 23 16  2  0
 22 20  2  0
 23 21  1  0
  2 24  1  0
  7 25  1  0
  7 26  1  0
 10 27  1  0
 12 28  1  0
 14 29  1  0
 20 30  1  0
 21 31  1  0
 22 32  1  0
 23 33  1  0
M  CHG  2   4   1  15  -1
M  END
>  <ALOGPS_LOGP>  (1) 
1.65

>  <ALOGPS_LOGS>  (1) 
-3.59

>  <ALOGPS_SOLUBILITY>  (1) 
8.05e-02 g/l

>  <DATABASE_ID>  (1) 
DB01219

>  <DATABASE_NAME>  (1) 
drugbank

>  <DRUGBANK_ID>  (1) 
DB01219

>  <DRUG_GROUPS>  (1) 
approved

>  <EXACT_MASS>  (1) 
314.06511945

>  <FORMULA>  (1) 
C14H10N4O5

>  <GENERIC_NAME>  (1) 
Dantrolene

>  <INCHI_IDENTIFIER>  (1) 
InChI=1S/C14H10N4O5/c19-13-8-17(14(20)16-13)15-7-11-5-6-12(23-11)9-1-3-10(4-2-9)18(21)22/h1-7H,8H2,(H,16,19,20)

>  <INCHI_KEY>  (1) 
OZOMQRBLCMDCEG-UHFFFAOYSA-N

>  <INTERNATIONAL_BRANDS>  (1) 
Dantamacrin

>  <JCHEM_ACCEPTOR_COUNT>  (1) 
5

>  <JCHEM_AVERAGE_POLARIZABILITY>  (1) 
29.984830848970606

>  <JCHEM_BIOAVAILABILITY>  (1) 
1

>  <JCHEM_DONOR_COUNT>  (1) 
1

>  <JCHEM_FORMAL_CHARGE>  (1) 
0

>  <JCHEM_GHOSE_FILTER>  (1) 
1

>  <JCHEM_IUPAC>  (1) 
1-({[5-(4-nitrophenyl)furan-2-yl]methylidene}amino)imidazolidine-2,4-dione

>  <JCHEM_LOGP>  (1) 
1.256485484666666

>  <JCHEM_MDDR_LIKE_RULE>  (1) 
0

>  <JCHEM_NUMBER_OF_RINGS>  (1) 
3

>  <JCHEM_PHYSIOLOGICAL_CHARGE>  (1) 
0

>  <JCHEM_PKA>  (1) 
14.889167005716253

>  <JCHEM_PKA_STRONGEST_ACIDIC>  (1) 
9.233154620304278

>  <JCHEM_PKA_STRONGEST_BASIC>  (1) 
-1.376752956749463

>  <JCHEM_POLAR_SURFACE_AREA>  (1) 
120.72999999999999

>  <JCHEM_REFRACTIVITY>  (1) 
78.87450000000001

>  <JCHEM_ROTATABLE_BOND_COUNT>  (1) 
4

>  <JCHEM_RULE_OF_FIVE>  (1) 
1

>  <JCHEM_TRADITIONAL_IUPAC>  (1) 
sodium, dantrolene

>  <JCHEM_VEBER_RULE>  (1) 
0

>  <MOLECULAR_WEIGHT>  (1) 
314.253

>  <PRODUCTS>  (1) 
Dantrium; Dantrium Cap 100mg; Dantrium Cap 25mg; Dantrium Capsules; Dantrium Intravenous; Dantrolene; Dantrolene Sodium; Revonto; Ryanodex Dantrolene Sodium

>  <SALTS>  (1) 
Dantrolene Sodium

>  <SECONDARY_ACCESSION_NUMBERS>  (1) 
APRD00901

>  <SMILES>  (1) 
[O-][N+](=O)C1=CC=C(C=C1)C1=CC=C(O1)C=NN1CC(=O)NC1=O

>  <SYNONYMS>  (1) 
Dantroleno; Dantrolenum

$$$$
