1083
     RDKit          2D

 88 88  0  0  1  0  0  0  0  0999 V2000
    6.6160   -0.3494    0.0000 O   0  0  0  0  0  0  0  0  0  0  0  0
    8.5796   -2.1277    0.0000 O   0  0  0  0  0  0  0  0  0  0  0  0
    5.2076    0.2340    0.0000 O   0  0  0  0  0  0  0  0  0  0  0  0
    9.5901   -1.1172    0.0000 O   0  0  0  0  0  0  0  0  0  0  0  0
   11.1267   -3.6643    0.0000 O   0  0  0  0  0  0  0  0  0  0  0  0
   10.7568   -2.2840    0.0000 N   0  0  0  0  0  0  0  0  0  0  0  0
    6.6160   -1.1744    0.0000 C   0  0  0  0  0  0  0  0  0  0  0  0
    5.7909   -1.1744    0.0000 C   0  0  0  0  0  0  0  0  0  0  0  0
    7.1993   -1.7578    0.0000 C   0  0  0  0  0  0  0  0  0  0  0  0
    5.2076   -1.7578    0.0000 C   0  0  0  0  0  0  0  0  0  0  0  0
    7.9962   -1.5443    0.0000 C   0  0  0  0  0  0  0  0  0  0  0  0
    5.7909   -0.3494    0.0000 C   0  0  0  0  0  0  0  0  0  0  0  0
    8.2097   -0.7474    0.0000 C   0  0  0  0  0  0  0  0  0  0  0  0
    4.4107   -1.5443    0.0000 C   0  0  0  0  0  0  0  0  0  0  0  0
    9.0067   -0.5338    0.0000 C   0  0  0  0  0  0  0  0  0  0  0  0
    3.8273   -2.1277    0.0000 C   0  0  0  0  0  0  0  0  0  0  0  0
    9.2202    0.2631    0.0000 C   0  0  0  0  0  0  0  0  0  0  0  0
   10.0171    0.4766    0.0000 C   0  0  0  0  0  0  0  0  0  0  0  0
    3.0303   -1.9141    0.0000 C   0  0  0  0  0  0  0  0  0  0  0  0
   10.2306    1.2735    0.0000 C   0  0  0  0  0  0  0  0  0  0  0  0
    9.3766   -1.9141    0.0000 C   0  0  0  0  0  0  0  0  0  0  0  0
    9.9599   -2.4975    0.0000 C   0  0  0  0  0  0  0  0  0  0  0  0
   11.0276    1.4870    0.0000 C   0  0  0  0  0  0  0  0  0  0  0  0
    2.4469   -2.4975    0.0000 C   0  0  0  0  0  0  0  0  0  0  0  0
    9.7464   -3.2944    0.0000 C   0  0  0  0  0  0  0  0  0  0  0  0
   11.2411    2.2840    0.0000 C   0  0  0  0  0  0  0  0  0  0  0  0
    8.9495   -3.5079    0.0000 C   0  0  0  0  0  0  0  0  0  0  0  0
   12.0380    2.4975    0.0000 C   0  0  0  0  0  0  0  0  0  0  0  0
    1.6500   -2.2840    0.0000 C   0  0  0  0  0  0  0  0  0  0  0  0
   12.2515    3.2944    0.0000 C   0  0  0  0  0  0  0  0  0  0  0  0
    8.3661   -2.9245    0.0000 C   0  0  0  0  0  0  0  0  0  0  0  0
    8.7359   -4.3049    0.0000 C   0  0  0  0  0  0  0  0  0  0  0  0
   13.0485    3.5079    0.0000 C   0  0  0  0  0  0  0  0  0  0  0  0
   11.3402   -2.8674    0.0000 C   0  0  0  0  0  0  0  0  0  0  0  0
   13.2620    4.3049    0.0000 C   0  0  0  0  0  0  0  0  0  0  0  0
    0.0000    0.0000    0.0000 H   0  0  0  0  0  0  0  0  0  0  0  0
    0.0000    0.0000    0.0000 H   0  0  0  0  0  0  0  0  0  0  0  0
    0.0000    0.0000    0.0000 H   0  0  0  0  0  0  0  0  0  0  0  0
    0.0000    0.0000    0.0000 H   0  0  0  0  0  0  0  0  0  0  0  0
    0.0000    0.0000    0.0000 H   0  0  0  0  0  0  0  0  0  0  0  0
    0.0000    0.0000    0.0000 H   0  0  0  0  0  0  0  0  0  0  0  0
    0.0000    0.0000    0.0000 H   0  0  0  0  0  0  0  0  0  0  0  0
    0.0000    0.0000    0.0000 H   0  0  0  0  0  0  0  0  0  0  0  0
    0.0000    0.0000    0.0000 H   0  0  0  0  0  0  0  0  0  0  0  0
    0.0000    0.0000    0.0000 H   0  0  0  0  0  0  0  0  0  0  0  0
    0.0000    0.0000    0.0000 H   0  0  0  0  0  0  0  0  0  0  0  0
    0.0000    0.0000    0.0000 H   0  0  0  0  0  0  0  0  0  0  0  0
    0.0000    0.0000    0.0000 H   0  0  0  0  0  0  0  0  0  0  0  0
    0.0000    0.0000    0.0000 H   0  0  0  0  0  0  0  0  0  0  0  0
    0.0000    0.0000    0.0000 H   0  0  0  0  0  0  0  0  0  0  0  0
    0.0000    0.0000    0.0000 H   0  0  0  0  0  0  0  0  0  0  0  0
    0.0000    0.0000    0.0000 H   0  0  0  0  0  0  0  0  0  0  0  0
    0.0000    0.0000    0.0000 H   0  0  0  0  0  0  0  0  0  0  0  0
    0.0000    0.0000    0.0000 H   0  0  0  0  0  0  0  0  0  0  0  0
    0.0000    0.0000    0.0000 H   0  0  0  0  0  0  0  0  0  0  0  0
    0.0000    0.0000    0.0000 H   0  0  0  0  0  0  0  0  0  0  0  0
    0.0000    0.0000    0.0000 H   0  0  0  0  0  0  0  0  0  0  0  0
    0.0000    0.0000    0.0000 H   0  0  0  0  0  0  0  0  0  0  0  0
    0.0000    0.0000    0.0000 H   0  0  0  0  0  0  0  0  0  0  0  0
    0.0000    0.0000    0.0000 H   0  0  0  0  0  0  0  0  0  0  0  0
    0.0000    0.0000    0.0000 H   0  0  0  0  0  0  0  0  0  0  0  0
    0.0000    0.0000    0.0000 H   0  0  0  0  0  0  0  0  0  0  0  0
    0.0000    0.0000    0.0000 H   0  0  0  0  0  0  0  0  0  0  0  0
    0.0000    0.0000    0.0000 H   0  0  0  0  0  0  0  0  0  0  0  0
    0.0000    0.0000    0.0000 H   0  0  0  0  0  0  0  0  0  0  0  0
    0.0000    0.0000    0.0000 H   0  0  0  0  0  0  0  0  0  0  0  0
    0.0000    0.0000    0.0000 H   0  0  0  0  0  0  0  0  0  0  0  0
    0.0000    0.0000    0.0000 H   0  0  0  0  0  0  0  0  0  0  0  0
    0.0000    0.0000    0.0000 H   0  0  0  0  0  0  0  0  0  0  0  0
    0.0000    0.0000    0.0000 H   0  0  0  0  0  0  0  0  0  0  0  0
    0.0000    0.0000    0.0000 H   0  0  0  0  0  0  0  0  0  0  0  0
    0.0000    0.0000    0.0000 H   0  0  0  0  0  0  0  0  0  0  0  0
    0.0000    0.0000    0.0000 H   0  0  0  0  0  0  0  0  0  0  0  0
    0.0000    0.0000    0.0000 H   0  0  0  0  0  0  0  0  0  0  0  0
    0.0000    0.0000    0.0000 H   0  0  0  0  0  0  0  0  0  0  0  0
    0.0000    0.0000    0.0000 H   0  0  0  0  0  0  0  0  0  0  0  0
    0.0000    0.0000    0.0000 H   0  0  0  0  0  0  0  0  0  0  0  0
    0.0000    0.0000    0.0000 H   0  0  0  0  0  0  0  0  0  0  0  0
    0.0000    0.0000    0.0000 H   0  0  0  0  0  0  0  0  0  0  0  0
    0.0000    0.0000    0.0000 H   0  0  0  0  0  0  0  0  0  0  0  0
    0.0000    0.0000    0.0000 H   0  0  0  0  0  0  0  0  0  0  0  0
    0.0000    0.0000    0.0000 H   0  0  0  0  0  0  0  0  0  0  0  0
    0.0000    0.0000    0.0000 H   0  0  0  0  0  0  0  0  0  0  0  0
    0.0000    0.0000    0.0000 H   0  0  0  0  0  0  0  0  0  0  0  0
    0.0000    0.0000    0.0000 H   0  0  0  0  0  0  0  0  0  0  0  0
    0.0000    0.0000    0.0000 H   0  0  0  0  0  0  0  0  0  0  0  0
    0.0000    0.0000    0.0000 H   0  0  0  0  0  0  0  0  0  0  0  0
    0.0000    0.0000    0.0000 H   0  0  0  0  0  0  0  0  0  0  0  0
  1  7  1  0
  1 12  1  0
 11  2  1  1
  2 21  1  0
  3 12  2  0
  4 21  2  0
  5 34  2  0
 22  6  1  6
  6 34  1  0
  7  8  1  0
  7  9  1  6
  8 10  1  6
  8 12  1  0
  9 11  1  0
 10 14  1  0
 11 13  1  0
 13 15  1  0
 14 16  1  0
 15 17  1  0
 16 19  1  0
 17 18  1  0
 18 20  1  0
 19 24  1  0
 20 23  1  0
 21 22  1  0
 22 25  1  0
 23 26  1  0
 24 29  1  0
 25 27  1  0
 26 28  1  0
 27 31  1  0
 27 32  1  0
 28 30  1  0
 30 33  1  0
 33 35  1  0
  6 36  1  0
  7 37  1  0
  8 38  1  0
  9 39  1  0
  9 40  1  0
 10 41  1  0
 10 42  1  0
 11 43  1  0
 13 44  1  0
 13 45  1  0
 14 46  1  0
 14 47  1  0
 15 48  1  0
 15 49  1  0
 16 50  1  0
 16 51  1  0
 17 52  1  0
 17 53  1  0
 18 54  1  0
 18 55  1  0
 19 56  1  0
 19 57  1  0
 20 58  1  0
 20 59  1  0
 22 60  1  0
 23 61  1  0
 23 62  1  0
 24 63  1  0
 24 64  1  0
 25 65  1  0
 25 66  1  0
 26 67  1  0
 26 68  1  0
 27 69  1  0
 28 70  1  0
 28 71  1  0
 29 72  1  0
 29 73  1  0
 29 74  1  0
 30 75  1  0
 30 76  1  0
 31 77  1  0
 31 78  1  0
 31 79  1  0
 32 80  1  0
 32 81  1  0
 32 82  1  0
 33 83  1  0
 33 84  1  0
 34 85  1  0
 35 86  1  0
 35 87  1  0
 35 88  1  0
M  END
>  <ALOGPS_LOGP>  (1) 
7.61

>  <ALOGPS_LOGS>  (1) 
-6.73

>  <ALOGPS_SOLUBILITY>  (1) 
9.19e-05 g/l

>  <DATABASE_ID>  (1) 
DB01083

>  <DATABASE_NAME>  (1) 
drugbank

>  <DRUGBANK_ID>  (1) 
DB01083

>  <DRUG_GROUPS>  (1) 
approved; investigational

>  <EXACT_MASS>  (1) 
495.392373811

>  <FORMULA>  (1) 
C29H53NO5

>  <GENERIC_NAME>  (1) 
Orlistat

>  <INCHI_IDENTIFIER>  (1) 
InChI=1S/C29H53NO5/c1-5-7-9-11-12-13-14-15-16-18-24(34-29(33)26(30-22-31)20-23(3)4)21-27-25(28(32)35-27)19-17-10-8-6-2/h22-27H,5-21H2,1-4H3,(H,30,31)/t24-,25-,26-,27-/m0/s1

>  <INCHI_KEY>  (1) 
AHLBNYSZXLDEJQ-FWEHEUNISA-N

>  <JCHEM_ACCEPTOR_COUNT>  (1) 
3

>  <JCHEM_AVERAGE_POLARIZABILITY>  (1) 
61.11855493108451

>  <JCHEM_BIOAVAILABILITY>  (1) 
0

>  <JCHEM_DONOR_COUNT>  (1) 
1

>  <JCHEM_FORMAL_CHARGE>  (1) 
0

>  <JCHEM_GHOSE_FILTER>  (1) 
0

>  <JCHEM_IUPAC>  (1) 
(2S)-1-[(2S,3S)-3-hexyl-4-oxooxetan-2-yl]tridecan-2-yl (2S)-2-formamido-4-methylpentanoate

>  <JCHEM_LOGP>  (1) 
8.106577767000001

>  <JCHEM_MDDR_LIKE_RULE>  (1) 
0

>  <JCHEM_NUMBER_OF_RINGS>  (1) 
1

>  <JCHEM_PHYSIOLOGICAL_CHARGE>  (1) 
0

>  <JCHEM_PKA_STRONGEST_ACIDIC>  (1) 
12.743767089986566

>  <JCHEM_PKA_STRONGEST_BASIC>  (1) 
-0.911687162329263

>  <JCHEM_POLAR_SURFACE_AREA>  (1) 
81.7

>  <JCHEM_REFRACTIVITY>  (1) 
139.9443

>  <JCHEM_ROTATABLE_BOND_COUNT>  (1) 
23

>  <JCHEM_RULE_OF_FIVE>  (1) 
0

>  <JCHEM_TRADITIONAL_IUPAC>  (1) 
orlistat

>  <JCHEM_VEBER_RULE>  (1) 
0

>  <MOLECULAR_WEIGHT>  (1) 
495.7348

>  <PRODUCTS>  (1) 
Alli; Xenical

>  <SECONDARY_ACCESSION_NUMBERS>  (1) 
APRD00255

>  <SMILES>  (1) 
CCCCCCCCCCC[C@@H](C[C@@H]1OC(=O)[C@H]1CCCCCC)OC(=O)[C@H](CC(C)C)NC=O

>  <SYNONYMS>  (1) 
Orlipastatum

$$$$
