1058
     RDKit          2D

 47 50  0  0  1  0  0  0  0  0999 V2000
    3.8014    1.4494    0.0000 O   0  0  0  0  0  0  0  0  0  0  0  0
    5.2682   -1.8991    0.0000 O   0  0  0  0  0  0  0  0  0  0  0  0
    5.9961   -0.6330    0.0000 N   0  0  0  0  0  0  0  0  0  0  0  0
    4.5111    0.2091    0.0000 N   0  0  0  0  0  0  0  0  0  0  0  0
    5.9961    0.1920    0.0000 C   0  0  0  0  0  0  0  0  0  0  0  0
    3.0821    0.2147    0.0000 C   0  0  0  0  0  0  0  0  0  0  0  0
    5.2586    0.6330    0.0000 C   0  0  0  0  0  0  0  0  0  0  0  0
    3.0789   -0.6103    0.0000 C   0  0  0  0  0  0  0  0  0  0  0  0
    2.3693    0.6299    0.0000 C   0  0  0  0  0  0  0  0  0  0  0  0
    3.7982    0.6244    0.0000 C   0  0  0  0  0  0  0  0  0  0  0  0
    2.3629   -1.0201    0.0000 C   0  0  0  0  0  0  0  0  0  0  0  0
    1.6532    0.2201    0.0000 C   0  0  0  0  0  0  0  0  0  0  0  0
    6.7106    0.6045    0.0000 C   0  0  0  0  0  0  0  0  0  0  0  0
    6.7106   -1.0455    0.0000 C   0  0  0  0  0  0  0  0  0  0  0  0
    4.5111   -0.6502    0.0000 C   0  0  0  0  0  0  0  0  0  0  0  0
    1.6500   -0.6049    0.0000 C   0  0  0  0  0  0  0  0  0  0  0  0
    7.4251   -0.6330    0.0000 C   0  0  0  0  0  0  0  0  0  0  0  0
    5.2586   -1.0742    0.0000 C   0  0  0  0  0  0  0  0  0  0  0  0
    7.4251    0.1920    0.0000 C   0  0  0  0  0  0  0  0  0  0  0  0
    6.6973    1.4637    0.0000 C   0  0  0  0  0  0  0  0  0  0  0  0
    8.1758    0.6101    0.0000 C   0  0  0  0  0  0  0  0  0  0  0  0
    7.4382    1.8991    0.0000 C   0  0  0  0  0  0  0  0  0  0  0  0
    8.1824    1.4694    0.0000 C   0  0  0  0  0  0  0  0  0  0  0  0
    0.0000    0.0000    0.0000 H   0  0  0  0  0  0  0  0  0  0  0  0
    0.0000    0.0000    0.0000 H   0  0  0  0  0  0  0  0  0  0  0  0
    0.0000    0.0000    0.0000 H   0  0  0  0  0  0  0  0  0  0  0  0
    0.0000    0.0000    0.0000 H   0  0  0  0  0  0  0  0  0  0  0  0
    0.0000    0.0000    0.0000 H   0  0  0  0  0  0  0  0  0  0  0  0
    0.0000    0.0000    0.0000 H   0  0  0  0  0  0  0  0  0  0  0  0
    0.0000    0.0000    0.0000 H   0  0  0  0  0  0  0  0  0  0  0  0
    0.0000    0.0000    0.0000 H   0  0  0  0  0  0  0  0  0  0  0  0
    0.0000    0.0000    0.0000 H   0  0  0  0  0  0  0  0  0  0  0  0
    0.0000    0.0000    0.0000 H   0  0  0  0  0  0  0  0  0  0  0  0
    0.0000    0.0000    0.0000 H   0  0  0  0  0  0  0  0  0  0  0  0
    0.0000    0.0000    0.0000 H   0  0  0  0  0  0  0  0  0  0  0  0
    0.0000    0.0000    0.0000 H   0  0  0  0  0  0  0  0  0  0  0  0
    0.0000    0.0000    0.0000 H   0  0  0  0  0  0  0  0  0  0  0  0
    0.0000    0.0000    0.0000 H   0  0  0  0  0  0  0  0  0  0  0  0
    0.0000    0.0000    0.0000 H   0  0  0  0  0  0  0  0  0  0  0  0
    0.0000    0.0000    0.0000 H   0  0  0  0  0  0  0  0  0  0  0  0
    0.0000    0.0000    0.0000 H   0  0  0  0  0  0  0  0  0  0  0  0
    0.0000    0.0000    0.0000 H   0  0  0  0  0  0  0  0  0  0  0  0
    0.0000    0.0000    0.0000 H   0  0  0  0  0  0  0  0  0  0  0  0
    0.0000    0.0000    0.0000 H   0  0  0  0  0  0  0  0  0  0  0  0
    0.0000    0.0000    0.0000 H   0  0  0  0  0  0  0  0  0  0  0  0
    0.0000    0.0000    0.0000 H   0  0  0  0  0  0  0  0  0  0  0  0
    0.0000    0.0000    0.0000 H   0  0  0  0  0  0  0  0  0  0  0  0
  1 10  2  0
  2 18  2  0
  3  5  1  0
  3 14  1  0
  3 18  1  0
  4  7  1  0
  4 10  1  0
  4 15  1  0
  5  7  1  0
  5 13  1  0
  6  8  1  0
  6  9  1  0
  6 10  1  0
  8 11  1  0
  9 12  1  0
 11 16  1  0
 12 16  1  0
 13 19  2  0
 13 20  1  0
 14 17  1  0
 15 18  1  0
 17 19  1  0
 19 21  1  0
 20 22  2  0
 21 23  2  0
 22 23  1  0
  5 24  1  0
  6 25  1  0
  7 26  1  0
  7 27  1  0
  8 28  1  0
  8 29  1  0
  9 30  1  0
  9 31  1  0
 11 32  1  0
 11 33  1  0
 12 34  1  0
 12 35  1  0
 14 36  1  0
 14 37  1  0
 15 38  1  0
 15 39  1  0
 16 40  1  0
 16 41  1  0
 17 42  1  0
 17 43  1  0
 20 44  1  0
 21 45  1  0
 22 46  1  0
 23 47  1  0
M  END
>  <ALOGPS_LOGP>  (1) 
2.42

>  <ALOGPS_LOGS>  (1) 
-2.91

>  <ALOGPS_SOLUBILITY>  (1) 
3.81e-01 g/l

>  <DATABASE_ID>  (1) 
DB01058

>  <DATABASE_NAME>  (1) 
drugbank

>  <DRUGBANK_ID>  (1) 
DB01058

>  <DRUG_GROUPS>  (1) 
approved; vet_approved

>  <EXACT_MASS>  (1) 
312.183778022

>  <FORMULA>  (1) 
C19H24N2O2

>  <GENERIC_NAME>  (1) 
Praziquantel

>  <INCHI_IDENTIFIER>  (1) 
InChI=1S/C19H24N2O2/c22-18-13-20(19(23)15-7-2-1-3-8-15)12-17-16-9-5-4-6-14(16)10-11-21(17)18/h4-6,9,15,17H,1-3,7-8,10-13H2

>  <INCHI_KEY>  (1) 
FSVJFNAIGNNGKK-UHFFFAOYSA-N

>  <JCHEM_ACCEPTOR_COUNT>  (1) 
2

>  <JCHEM_AVERAGE_POLARIZABILITY>  (1) 
34.839891396778825

>  <JCHEM_BIOAVAILABILITY>  (1) 
1

>  <JCHEM_DONOR_COUNT>  (1) 
0

>  <JCHEM_FORMAL_CHARGE>  (1) 
0

>  <JCHEM_GHOSE_FILTER>  (1) 
1

>  <JCHEM_IUPAC>  (1) 
2-cyclohexanecarbonyl-1H,2H,3H,4H,6H,7H,11bH-piperazino[2,1-a]isoquinolin-4-one

>  <JCHEM_LOGP>  (1) 
2.3015625973333336

>  <JCHEM_MDDR_LIKE_RULE>  (1) 
0

>  <JCHEM_NUMBER_OF_RINGS>  (1) 
4

>  <JCHEM_PHYSIOLOGICAL_CHARGE>  (1) 
0

>  <JCHEM_PKA_STRONGEST_ACIDIC>  (1) 
19.37823322062147

>  <JCHEM_PKA_STRONGEST_BASIC>  (1) 
-0.21911285258106628

>  <JCHEM_POLAR_SURFACE_AREA>  (1) 
40.620000000000005

>  <JCHEM_REFRACTIVITY>  (1) 
88.7851

>  <JCHEM_ROTATABLE_BOND_COUNT>  (1) 
1

>  <JCHEM_RULE_OF_FIVE>  (1) 
1

>  <JCHEM_TRADITIONAL_IUPAC>  (1) 
praziquantel

>  <JCHEM_VEBER_RULE>  (1) 
0

>  <MOLECULAR_WEIGHT>  (1) 
312.4061

>  <PRODUCTS>  (1) 
Biltricide

>  <SECONDARY_ACCESSION_NUMBERS>  (1) 
APRD01196; EXPT02728

>  <SMILES>  (1) 
O=C(C1CCCCC1)N1CC2N(CCC3=CC=CC=C23)C(=O)C1

$$$$
