3261
     RDKit          2D

 32 35  0  0  0  0  0  0  0  0999 V2000
    1.6500   -0.4448    0.0000 Cl  0  0  0  0  0  0  0  0  0  0  0  0
    4.8158   -1.5395    0.0000 N   0  0  0  0  0  0  0  0  0  0  0  0
    5.2283    0.2678    0.0000 N   0  0  0  0  0  0  0  0  0  0  0  0
    6.1244   -1.7758    0.0000 N   0  0  0  0  0  0  0  0  0  0  0  0
    5.7351   -2.4977    0.0000 N   0  0  0  0  0  0  0  0  0  0  0  0
    4.0726   -1.1816    0.0000 C   0  0  0  0  0  0  0  0  0  0  0  0
    3.8890   -0.3773    0.0000 C   0  0  0  0  0  0  0  0  0  0  0  0
    4.4033    0.2678    0.0000 C   0  0  0  0  0  0  0  0  0  0  0  0
    5.5592   -1.1816    0.0000 C   0  0  0  0  0  0  0  0  0  0  0  0
    5.7427   -0.3773    0.0000 C   0  0  0  0  0  0  0  0  0  0  0  0
    4.0455    1.0110    0.0000 C   0  0  0  0  0  0  0  0  0  0  0  0
    3.4517   -1.7757    0.0000 C   0  0  0  0  0  0  0  0  0  0  0  0
    3.0718   -0.1113    0.0000 C   0  0  0  0  0  0  0  0  0  0  0  0
    4.9280   -2.3519    0.0000 C   0  0  0  0  0  0  0  0  0  0  0  0
    2.6286   -1.5287    0.0000 C   0  0  0  0  0  0  0  0  0  0  0  0
    2.4374   -0.6909    0.0000 C   0  0  0  0  0  0  0  0  0  0  0  0
    4.5102    1.6927    0.0000 C   0  0  0  0  0  0  0  0  0  0  0  0
    3.2227    1.0727    0.0000 C   0  0  0  0  0  0  0  0  0  0  0  0
    4.1522    2.4360    0.0000 C   0  0  0  0  0  0  0  0  0  0  0  0
    2.8648    1.8160    0.0000 C   0  0  0  0  0  0  0  0  0  0  0  0
    3.3295    2.4977    0.0000 C   0  0  0  0  0  0  0  0  0  0  0  0
    0.0000    0.0000    0.0000 H   0  0  0  0  0  0  0  0  0  0  0  0
    0.0000    0.0000    0.0000 H   0  0  0  0  0  0  0  0  0  0  0  0
    0.0000    0.0000    0.0000 H   0  0  0  0  0  0  0  0  0  0  0  0
    0.0000    0.0000    0.0000 H   0  0  0  0  0  0  0  0  0  0  0  0
    0.0000    0.0000    0.0000 H   0  0  0  0  0  0  0  0  0  0  0  0
    0.0000    0.0000    0.0000 H   0  0  0  0  0  0  0  0  0  0  0  0
    0.0000    0.0000    0.0000 H   0  0  0  0  0  0  0  0  0  0  0  0
    0.0000    0.0000    0.0000 H   0  0  0  0  0  0  0  0  0  0  0  0
    0.0000    0.0000    0.0000 H   0  0  0  0  0  0  0  0  0  0  0  0
    0.0000    0.0000    0.0000 H   0  0  0  0  0  0  0  0  0  0  0  0
    0.0000    0.0000    0.0000 H   0  0  0  0  0  0  0  0  0  0  0  0
  1 16  1  0
  2  6  1  0
  2  9  1  0
  2 14  1  0
  3  8  2  0
  3 10  1  0
  4  5  1  0
  4  9  2  0
  5 14  2  0
  6  7  2  0
  6 12  1  0
  7  8  1  0
  7 13  1  0
  8 11  1  0
  9 10  1  0
 11 17  2  0
 11 18  1  0
 12 15  2  0
 13 16  2  0
 15 16  1  0
 17 19  1  0
 18 20  2  0
 19 21  2  0
 20 21  1  0
 10 22  1  0
 10 23  1  0
 12 24  1  0
 13 25  1  0
 14 26  1  0
 15 27  1  0
 17 28  1  0
 18 29  1  0
 19 30  1  0
 20 31  1  0
 21 32  1  0
M  END
>  <ALOGPS_LOGP>  (1) 
1.72

>  <ALOGPS_LOGS>  (1) 
-3.84

>  <ALOGPS_SOLUBILITY>  (1) 
4.23e-02 g/l

>  <DATABASE_ID>  (1) 
DB01215

>  <DATABASE_NAME>  (1) 
drugbank

>  <DRUGBANK_ID>  (1) 
DB01215

>  <DRUG_GROUPS>  (1) 
approved; illicit

>  <EXACT_MASS>  (1) 
294.067224079

>  <FORMULA>  (1) 
C16H11ClN4

>  <GENERIC_NAME>  (1) 
Estazolam

>  <INCHI_IDENTIFIER>  (1) 
InChI=1S/C16H11ClN4/c17-12-6-7-14-13(8-12)16(11-4-2-1-3-5-11)18-9-15-20-19-10-21(14)15/h1-8,10H,9H2

>  <INCHI_KEY>  (1) 
CDCHDCWJMGXXRH-UHFFFAOYSA-N

>  <INTERNATIONAL_BRANDS>  (1) 
Esilgan; Eurodin; Nuctalon; ProSom

>  <JCHEM_ACCEPTOR_COUNT>  (1) 
3

>  <JCHEM_AVERAGE_POLARIZABILITY>  (1) 
29.827221942297236

>  <JCHEM_BIOAVAILABILITY>  (1) 
1

>  <JCHEM_DONOR_COUNT>  (1) 
0

>  <JCHEM_FORMAL_CHARGE>  (1) 
0

>  <JCHEM_GHOSE_FILTER>  (1) 
1

>  <JCHEM_IUPAC>  (1) 
12-chloro-9-phenyl-2,4,5,8-tetraazatricyclo[8.4.0.0²,⁶]tetradeca-1(10),3,5,8,11,13-hexaene

>  <JCHEM_LOGP>  (1) 
2.0913

>  <JCHEM_MDDR_LIKE_RULE>  (1) 
0

>  <JCHEM_NUMBER_OF_RINGS>  (1) 
4

>  <JCHEM_PHYSIOLOGICAL_CHARGE>  (1) 
0

>  <JCHEM_PKA_STRONGEST_ACIDIC>  (1) 
18.40070520410853

>  <JCHEM_PKA_STRONGEST_BASIC>  (1) 
4.971016976851028

>  <JCHEM_POLAR_SURFACE_AREA>  (1) 
43.07

>  <JCHEM_REFRACTIVITY>  (1) 
94.43830000000001

>  <JCHEM_ROTATABLE_BOND_COUNT>  (1) 
1

>  <JCHEM_RULE_OF_FIVE>  (1) 
1

>  <JCHEM_TRADITIONAL_IUPAC>  (1) 
estazolam

>  <JCHEM_VEBER_RULE>  (1) 
0

>  <MOLECULAR_WEIGHT>  (1) 
294.738

>  <PRODUCTS>  (1) 
Estazolam; Prosom Tab 1mg; Prosom Tab 2mg

>  <SECONDARY_ACCESSION_NUMBERS>  (1) 
APRD00955

>  <SMILES>  (1) 
ClC1=CC2=C(C=C1)N1C=NN=C1CN=C2C1=CC=CC=C1

>  <SYNONYMS>  (1) 
8-chloro-6-phenyl-4H-s-triazolo(4,3-a)(1,4)benzodiazepine

$$$$
