1262
     RDKit          2D

 28 29  0  0  1  0  0  0  0  0999 V2000
    3.7464   -1.1305    0.0000 O   0  0  0  0  0  0  0  0  0  0  0  0
    2.1816   -2.5826    0.0000 O   0  0  0  0  0  0  0  0  0  0  0  0
    4.7969   -2.4964    0.0000 O   0  0  0  0  0  0  0  0  0  0  0  0
    1.6500    0.1794    0.0000 O   0  0  0  0  0  0  0  0  0  0  0  0
    3.0790    0.1794    0.0000 N   0  0  0  0  0  0  0  0  0  0  0  0
    2.3645    1.4169    0.0000 N   0  0  0  0  0  0  0  0  0  0  0  0
    3.7935    1.4169    0.0000 N   0  0  0  0  0  0  0  0  0  0  0  0
    3.0790    2.6545    0.0000 N   0  0  0  0  0  0  0  0  0  0  0  0
    2.6665   -1.9152    0.0000 C   0  0  0  0  0  0  0  0  0  0  0  0
    2.4115   -1.1305    0.0000 C   0  0  0  0  0  0  0  0  0  0  0  0
    3.4915   -1.9152    0.0000 C   0  0  0  0  0  0  0  0  0  0  0  0
    3.0790   -0.6456    0.0000 C   0  0  0  0  0  0  0  0  0  0  0  0
    3.9764   -2.5826    0.0000 C   0  0  0  0  0  0  0  0  0  0  0  0
    2.3645    0.5919    0.0000 C   0  0  0  0  0  0  0  0  0  0  0  0
    3.7935    0.5919    0.0000 C   0  0  0  0  0  0  0  0  0  0  0  0
    3.0790    1.8294    0.0000 C   0  0  0  0  0  0  0  0  0  0  0  0
    0.0000    0.0000    0.0000 H   0  0  0  0  0  0  0  0  0  0  0  0
    0.0000    0.0000    0.0000 H   0  0  0  0  0  0  0  0  0  0  0  0
    0.0000    0.0000    0.0000 H   0  0  0  0  0  0  0  0  0  0  0  0
    0.0000    0.0000    0.0000 H   0  0  0  0  0  0  0  0  0  0  0  0
    0.0000    0.0000    0.0000 H   0  0  0  0  0  0  0  0  0  0  0  0
    0.0000    0.0000    0.0000 H   0  0  0  0  0  0  0  0  0  0  0  0
    0.0000    0.0000    0.0000 H   0  0  0  0  0  0  0  0  0  0  0  0
    0.0000    0.0000    0.0000 H   0  0  0  0  0  0  0  0  0  0  0  0
    0.0000    0.0000    0.0000 H   0  0  0  0  0  0  0  0  0  0  0  0
    0.0000    0.0000    0.0000 H   0  0  0  0  0  0  0  0  0  0  0  0
    0.0000    0.0000    0.0000 H   0  0  0  0  0  0  0  0  0  0  0  0
    0.0000    0.0000    0.0000 H   0  0  0  0  0  0  0  0  0  0  0  0
  1 11  1  0
  1 12  1  0
  9  2  1  1
  3 13  1  0
  4 14  2  0
 12  5  1  6
  5 14  1  0
  5 15  1  0
  6 14  1  0
  6 16  2  0
  7 15  2  0
  7 16  1  0
  8 16  1  0
  9 10  1  0
  9 11  1  0
 10 12  1  0
 11 13  1  1
  2 17  1  0
  3 18  1  0
  8 19  1  0
  8 20  1  0
  9 21  1  0
 10 22  1  0
 10 23  1  0
 11 24  1  0
 12 25  1  0
 13 26  1  0
 13 27  1  0
 15 28  1  0
M  END
>  <ALOGPS_LOGP>  (1) 
-1.96

>  <ALOGPS_LOGS>  (1) 
-1.62

>  <ALOGPS_SOLUBILITY>  (1) 
5.50e+00 g/l

>  <DATABASE_ID>  (1) 
DB01262

>  <DATABASE_NAME>  (1) 
drugbank

>  <DRUGBANK_ID>  (1) 
DB01262

>  <DRUG_GROUPS>  (1) 
approved; investigational

>  <EXACT_MASS>  (1) 
228.085854892

>  <FORMULA>  (1) 
C8H12N4O4

>  <GENERIC_NAME>  (1) 
Decitabine

>  <INCHI_IDENTIFIER>  (1) 
InChI=1S/C8H12N4O4/c9-7-10-3-12(8(15)11-7)6-1-4(14)5(2-13)16-6/h3-6,13-14H,1-2H2,(H2,9,11,15)/t4-,5+,6+/m0/s1

>  <INCHI_KEY>  (1) 
XAUDJQYHKZQPEU-KVQBGUIXSA-N

>  <JCHEM_ACCEPTOR_COUNT>  (1) 
7

>  <JCHEM_AVERAGE_POLARIZABILITY>  (1) 
21.152792212911397

>  <JCHEM_BIOAVAILABILITY>  (1) 
1

>  <JCHEM_DONOR_COUNT>  (1) 
3

>  <JCHEM_FORMAL_CHARGE>  (1) 
0

>  <JCHEM_GHOSE_FILTER>  (1) 
0

>  <JCHEM_IUPAC>  (1) 
4-amino-1-[(2R,4S,5R)-4-hydroxy-5-(hydroxymethyl)oxolan-2-yl]-1,2-dihydro-1,3,5-triazin-2-one

>  <JCHEM_LOGP>  (1) 
-2.1646948889999997

>  <JCHEM_MDDR_LIKE_RULE>  (1) 
0

>  <JCHEM_NUMBER_OF_RINGS>  (1) 
2

>  <JCHEM_PHYSIOLOGICAL_CHARGE>  (1) 
0

>  <JCHEM_PKA>  (1) 
14.787531711736769

>  <JCHEM_PKA_STRONGEST_ACIDIC>  (1) 
13.894836659905877

>  <JCHEM_PKA_STRONGEST_BASIC>  (1) 
-0.24650109584685487

>  <JCHEM_POLAR_SURFACE_AREA>  (1) 
120.73999999999998

>  <JCHEM_REFRACTIVITY>  (1) 
50.6825

>  <JCHEM_ROTATABLE_BOND_COUNT>  (1) 
2

>  <JCHEM_RULE_OF_FIVE>  (1) 
1

>  <JCHEM_TRADITIONAL_IUPAC>  (1) 
decitabine

>  <JCHEM_VEBER_RULE>  (1) 
0

>  <MOLECULAR_WEIGHT>  (1) 
228.2053

>  <PRODUCTS>  (1) 
Dacogen; Decitabine

>  <SMILES>  (1) 
NC1=NC(=O)N(C=N1)[C@H]1C[C@H](O)[C@@H](CO)O1

$$$$
