1189
     RDKit          2D

 12 11  0  0  1  0  0  0  0  0999 V2000
    3.0791    0.9760    0.0000 F   0  0  0  0  0  0  0  0  0  0  0  0
    1.6500   -0.6740    0.0000 F   0  0  0  0  0  0  0  0  0  0  0  0
    1.9520    0.4529    0.0000 F   0  0  0  0  0  0  0  0  0  0  0  0
    2.7770   -0.9760    0.0000 F   0  0  0  0  0  0  0  0  0  0  0  0
    5.2224   -0.2615    0.0000 F   0  0  0  0  0  0  0  0  0  0  0  0
    4.5080    0.9760    0.0000 F   0  0  0  0  0  0  0  0  0  0  0  0
    3.7935   -0.2615    0.0000 O   0  0  0  0  0  0  0  0  0  0  0  0
    3.0791    0.1510    0.0000 C   0  0  0  0  0  0  0  0  0  0  0  0
    2.3645   -0.2615    0.0000 C   0  0  0  0  0  0  0  0  0  0  0  0
    4.5080    0.1510    0.0000 C   0  0  0  0  0  0  0  0  0  0  0  0
    0.0000    0.0000    0.0000 H   0  0  0  0  0  0  0  0  0  0  0  0
    0.0000    0.0000    0.0000 H   0  0  0  0  0  0  0  0  0  0  0  0
  1  8  1  0
  2  9  1  0
  3  9  1  0
  4  9  1  0
  5 10  1  0
  6 10  1  0
  7  8  1  0
  7 10  1  0
  8  9  1  0
  8 11  1  0
 10 12  1  0
M  END
>  <ALOGPS_LOGP>  (1) 
2.19

>  <ALOGPS_LOGS>  (1) 
-1.68

>  <ALOGPS_SOLUBILITY>  (1) 
3.54e+00 g/l

>  <DATABASE_ID>  (1) 
DB01189

>  <DATABASE_NAME>  (1) 
drugbank

>  <DRUGBANK_ID>  (1) 
DB01189

>  <DRUG_GROUPS>  (1) 
approved

>  <EXACT_MASS>  (1) 
168.000983916

>  <FORMULA>  (1) 
C3H2F6O

>  <GENERIC_NAME>  (1) 
Desflurane

>  <INCHI_IDENTIFIER>  (1) 
InChI=1S/C3H2F6O/c4-1(3(7,8)9)10-2(5)6/h1-2H

>  <INCHI_KEY>  (1) 
DPYMFVXJLLWWEU-UHFFFAOYSA-N

>  <JCHEM_ACCEPTOR_COUNT>  (1) 
1

>  <JCHEM_AVERAGE_POLARIZABILITY>  (1) 
7.894929046218448

>  <JCHEM_BIOAVAILABILITY>  (1) 
1

>  <JCHEM_DONOR_COUNT>  (1) 
0

>  <JCHEM_FORMAL_CHARGE>  (1) 
0

>  <JCHEM_GHOSE_FILTER>  (1) 
0

>  <JCHEM_IUPAC>  (1) 
2-(difluoromethoxy)-1,1,1,2-tetrafluoroethane

>  <JCHEM_LOGP>  (1) 
2.4025108229999996

>  <JCHEM_MDDR_LIKE_RULE>  (1) 
0

>  <JCHEM_NUMBER_OF_RINGS>  (1) 
0

>  <JCHEM_PHYSIOLOGICAL_CHARGE>  (1) 
0

>  <JCHEM_PKA_STRONGEST_ACIDIC>  (1) 
18.870108514803245

>  <JCHEM_PKA_STRONGEST_BASIC>  (1) 
-4.810489555332021

>  <JCHEM_POLAR_SURFACE_AREA>  (1) 
9.23

>  <JCHEM_REFRACTIVITY>  (1) 
18.1205

>  <JCHEM_ROTATABLE_BOND_COUNT>  (1) 
3

>  <JCHEM_RULE_OF_FIVE>  (1) 
1

>  <JCHEM_TRADITIONAL_IUPAC>  (1) 
desflurane

>  <JCHEM_VEBER_RULE>  (1) 
1

>  <MOLECULAR_WEIGHT>  (1) 
168.0378

>  <PRODUCTS>  (1) 
Desflurane; Suprane

>  <SECONDARY_ACCESSION_NUMBERS>  (1) 
APRD00907

>  <SMILES>  (1) 
FC(F)OC(F)C(F)(F)F

>  <SYNONYMS>  (1) 
Desflurano; Desfluranum

$$$$
