1600
     RDKit          2D

 30 31  0  0  1  0  0  0  0  0999 V2000
    3.1652    0.9447    0.0000 S   0  0  0  0  0  0  0  0  0  0  0  0
    5.4638    2.7098    0.0000 O   0  0  0  0  0  0  0  0  0  0  0  0
    1.6500    0.1242    0.0000 O   0  0  0  0  0  0  0  0  0  0  0  0
    5.6132    1.2888    0.0000 O   0  0  0  0  0  0  0  0  0  0  0  0
    4.3078    1.8699    0.0000 C   0  0  0  0  0  0  0  0  0  0  0  0
    3.9722    1.1162    0.0000 C   0  0  0  0  0  0  0  0  0  0  0  0
    3.0790    0.1242    0.0000 C   0  0  0  0  0  0  0  0  0  0  0  0
    4.3847    0.4018    0.0000 C   0  0  0  0  0  0  0  0  0  0  0  0
    3.8229    2.5374    0.0000 C   0  0  0  0  0  0  0  0  0  0  0  0
    3.8327   -0.2114    0.0000 C   0  0  0  0  0  0  0  0  0  0  0  0
    2.3645   -0.2883    0.0000 C   0  0  0  0  0  0  0  0  0  0  0  0
    5.1283    1.9562    0.0000 C   0  0  0  0  0  0  0  0  0  0  0  0
    2.3645   -1.1133    0.0000 C   0  0  0  0  0  0  0  0  0  0  0  0
    3.0790   -1.5258    0.0000 C   0  0  0  0  0  0  0  0  0  0  0  0
    1.6500   -1.5258    0.0000 C   0  0  0  0  0  0  0  0  0  0  0  0
    3.0790   -2.3508    0.0000 C   0  0  0  0  0  0  0  0  0  0  0  0
    1.6500   -2.3508    0.0000 C   0  0  0  0  0  0  0  0  0  0  0  0
    2.3645   -2.7633    0.0000 C   0  0  0  0  0  0  0  0  0  0  0  0
    0.0000    0.0000    0.0000 H   0  0  0  0  0  0  0  0  0  0  0  0
    0.0000    0.0000    0.0000 H   0  0  0  0  0  0  0  0  0  0  0  0
    0.0000    0.0000    0.0000 H   0  0  0  0  0  0  0  0  0  0  0  0
    0.0000    0.0000    0.0000 H   0  0  0  0  0  0  0  0  0  0  0  0
    0.0000    0.0000    0.0000 H   0  0  0  0  0  0  0  0  0  0  0  0
    0.0000    0.0000    0.0000 H   0  0  0  0  0  0  0  0  0  0  0  0
    0.0000    0.0000    0.0000 H   0  0  0  0  0  0  0  0  0  0  0  0
    0.0000    0.0000    0.0000 H   0  0  0  0  0  0  0  0  0  0  0  0
    0.0000    0.0000    0.0000 H   0  0  0  0  0  0  0  0  0  0  0  0
    0.0000    0.0000    0.0000 H   0  0  0  0  0  0  0  0  0  0  0  0
    0.0000    0.0000    0.0000 H   0  0  0  0  0  0  0  0  0  0  0  0
    0.0000    0.0000    0.0000 H   0  0  0  0  0  0  0  0  0  0  0  0
  1  6  1  0
  1  7  1  0
  2 12  1  0
  3 11  2  0
  4 12  2  0
  5  6  1  0
  5  9  1  0
  5 12  1  0
  6  8  2  0
  7 10  2  0
  7 11  1  0
  8 10  1  0
 11 13  1  0
 13 14  2  0
 13 15  1  0
 14 16  1  0
 15 17  2  0
 16 18  2  0
 17 18  1  0
  2 19  1  0
  5 20  1  0
  8 21  1  0
  9 22  1  0
  9 23  1  0
  9 24  1  0
 10 25  1  0
 14 26  1  0
 15 27  1  0
 16 28  1  0
 17 29  1  0
 18 30  1  0
M  END
>  <ALOGPS_LOGP>  (1) 
3.22

>  <ALOGPS_LOGS>  (1) 
-3.91

>  <ALOGPS_SOLUBILITY>  (1) 
3.24e-02 g/l

>  <DATABASE_ID>  (1) 
DB01600

>  <DATABASE_NAME>  (1) 
drugbank

>  <DRUGBANK_ID>  (1) 
DB01600

>  <DRUG_GROUPS>  (1) 
approved

>  <EXACT_MASS>  (1) 
260.05071494

>  <FORMULA>  (1) 
C14H12O3S

>  <GENERIC_NAME>  (1) 
Tiaprofenic acid

>  <INCHI_IDENTIFIER>  (1) 
InChI=1S/C14H12O3S/c1-9(14(16)17)11-7-8-12(18-11)13(15)10-5-3-2-4-6-10/h2-9H,1H3,(H,16,17)

>  <INCHI_KEY>  (1) 
GUHPRPJDBZHYCJ-UHFFFAOYSA-N

>  <INTERNATIONAL_BRANDS>  (1) 
Surgamyl

>  <JCHEM_ACCEPTOR_COUNT>  (1) 
3

>  <JCHEM_AVERAGE_POLARIZABILITY>  (1) 
26.777139412484352

>  <JCHEM_BIOAVAILABILITY>  (1) 
1

>  <JCHEM_DONOR_COUNT>  (1) 
1

>  <JCHEM_FORMAL_CHARGE>  (1) 
0

>  <JCHEM_GHOSE_FILTER>  (1) 
1

>  <JCHEM_IUPAC>  (1) 
2-(5-benzoylthiophen-2-yl)propanoic acid

>  <JCHEM_LOGP>  (1) 
3.658654214

>  <JCHEM_MDDR_LIKE_RULE>  (1) 
0

>  <JCHEM_NUMBER_OF_RINGS>  (1) 
2

>  <JCHEM_PHYSIOLOGICAL_CHARGE>  (1) 
-1

>  <JCHEM_PKA_STRONGEST_ACIDIC>  (1) 
4.03430557260978

>  <JCHEM_PKA_STRONGEST_BASIC>  (1) 
-7.8159756912028655

>  <JCHEM_POLAR_SURFACE_AREA>  (1) 
54.37

>  <JCHEM_REFRACTIVITY>  (1) 
69.18960000000001

>  <JCHEM_ROTATABLE_BOND_COUNT>  (1) 
4

>  <JCHEM_RULE_OF_FIVE>  (1) 
1

>  <JCHEM_TRADITIONAL_IUPAC>  (1) 
tiaprofenic acid

>  <JCHEM_VEBER_RULE>  (1) 
0

>  <MOLECULAR_WEIGHT>  (1) 
260.308

>  <PRODUCTS>  (1) 
Albert Tiafen SR; Albert Tiafen Tab 200mg; Albert Tiafen Tab 300mg; Apo-tiaprofenic Tablets -300mg; Apo-tiaprofenic Tablets-200mg; Dom-tiaprofenic; Nu-tiaprofenic - Tab 200mg; Nu-tiaprofenic - Tab 300mg; PMS-tiaprofenic; Penta-tiaprofenic Tablets; Surgam; Surgam SR; Surgam SR Cap 300mg; Surgam Tab 200mg; Surgam Tab 300mg; Surgam-SR Src 300mg; Teva-tiaprofenic Acid; Tiaprofenic-200 - Tab; Tiaprofenic-300 - Tab

>  <SMILES>  (1) 
CC(C(O)=O)C1=CC=C(S1)C(=O)C1=CC=CC=C1

>  <SYNONYMS>  (1) 
2-(5-Benzoyl-thiophen-2-yl)-propionic acid; 5-Benzoyl-alpha-methyl-2-thiopheneacetic acid; Acide tiaprofenique; Acido tiaprofenico; Acidum tiaprofenicum; Tiaprofens√§ure

$$$$
