
     RDKit          2D

 45 47  0  0  0  0  0  0  0  0999 V2000
    3.6958   -2.3625    0.0000 S   0  0  0  0  0  0  0  0  0  0  0  0
    6.4888    0.0328    0.0000 O   0  0  0  0  0  0  0  0  0  0  0  0
    3.6958   -0.7783    0.0000 N   0  0  0  0  0  0  0  0  0  0  0  0
    2.3240    1.5979    0.0000 N   0  0  0  0  0  0  0  0  0  0  0  0
    3.6958    0.0137    0.0000 C   0  0  0  0  0  0  0  0  0  0  0  0
    3.0099    0.4098    0.0000 C   0  0  0  0  0  0  0  0  0  0  0  0
    4.3818   -1.1744    0.0000 C   0  0  0  0  0  0  0  0  0  0  0  0
    3.0099   -1.1744    0.0000 C   0  0  0  0  0  0  0  0  0  0  0  0
    3.0099    1.2018    0.0000 C   0  0  0  0  0  0  0  0  0  0  0  0
    4.3818   -1.9664    0.0000 C   0  0  0  0  0  0  0  0  0  0  0  0
    3.0099   -1.9664    0.0000 C   0  0  0  0  0  0  0  0  0  0  0  0
    5.0899   -0.7509    0.0000 C   0  0  0  0  0  0  0  0  0  0  0  0
    2.3018   -0.7509    0.0000 C   0  0  0  0  0  0  0  0  0  0  0  0
    5.8075   -1.1580    0.0000 C   0  0  0  0  0  0  0  0  0  0  0  0
    5.0899   -2.3899    0.0000 C   0  0  0  0  0  0  0  0  0  0  0  0
    2.3018   -2.3899    0.0000 C   0  0  0  0  0  0  0  0  0  0  0  0
    5.8075   -1.9830    0.0000 C   0  0  0  0  0  0  0  0  0  0  0  0
    1.5841   -1.1580    0.0000 C   0  0  0  0  0  0  0  0  0  0  0  0
    2.3240    2.3899    0.0000 C   0  0  0  0  0  0  0  0  0  0  0  0
    1.6380    1.2018    0.0000 C   0  0  0  0  0  0  0  0  0  0  0  0
    1.5841   -1.9830    0.0000 C   0  0  0  0  0  0  0  0  0  0  0  0
    6.4920   -0.7592    0.0000 C   0  0  0  0  0  0  0  0  0  0  0  0
    7.1794   -1.1526    0.0000 C   0  0  0  0  0  0  0  0  0  0  0  0
    0.0000    0.0000    0.0000 H   0  0  0  0  0  0  0  0  0  0  0  0
    0.0000    0.0000    0.0000 H   0  0  0  0  0  0  0  0  0  0  0  0
    0.0000    0.0000    0.0000 H   0  0  0  0  0  0  0  0  0  0  0  0
    0.0000    0.0000    0.0000 H   0  0  0  0  0  0  0  0  0  0  0  0
    0.0000    0.0000    0.0000 H   0  0  0  0  0  0  0  0  0  0  0  0
    0.0000    0.0000    0.0000 H   0  0  0  0  0  0  0  0  0  0  0  0
    0.0000    0.0000    0.0000 H   0  0  0  0  0  0  0  0  0  0  0  0
    0.0000    0.0000    0.0000 H   0  0  0  0  0  0  0  0  0  0  0  0
    0.0000    0.0000    0.0000 H   0  0  0  0  0  0  0  0  0  0  0  0
    0.0000    0.0000    0.0000 H   0  0  0  0  0  0  0  0  0  0  0  0
    0.0000    0.0000    0.0000 H   0  0  0  0  0  0  0  0  0  0  0  0
    0.0000    0.0000    0.0000 H   0  0  0  0  0  0  0  0  0  0  0  0
    0.0000    0.0000    0.0000 H   0  0  0  0  0  0  0  0  0  0  0  0
    0.0000    0.0000    0.0000 H   0  0  0  0  0  0  0  0  0  0  0  0
    0.0000    0.0000    0.0000 H   0  0  0  0  0  0  0  0  0  0  0  0
    0.0000    0.0000    0.0000 H   0  0  0  0  0  0  0  0  0  0  0  0
    0.0000    0.0000    0.0000 H   0  0  0  0  0  0  0  0  0  0  0  0
    0.0000    0.0000    0.0000 H   0  0  0  0  0  0  0  0  0  0  0  0
    0.0000    0.0000    0.0000 H   0  0  0  0  0  0  0  0  0  0  0  0
    0.0000    0.0000    0.0000 H   0  0  0  0  0  0  0  0  0  0  0  0
    0.0000    0.0000    0.0000 H   0  0  0  0  0  0  0  0  0  0  0  0
    0.0000    0.0000    0.0000 H   0  0  0  0  0  0  0  0  0  0  0  0
  1 10  1  0
  1 11  1  0
  2 22  2  0
  3  5  1  0
  3  7  1  0
  3  8  1  0
  4  9  1  0
  4 19  1  0
  4 20  1  0
  5  6  1  0
  6  9  1  0
  7 10  2  0
  7 12  1  0
  8 11  2  0
  8 13  1  0
 10 15  1  0
 11 16  1  0
 12 14  2  0
 13 18  2  0
 14 17  1  0
 14 22  1  0
 15 17  2  0
 16 21  2  0
 18 21  1  0
 22 23  1  0
  5 24  1  0
  5 25  1  0
  6 26  1  0
  6 27  1  0
  9 28  1  0
  9 29  1  0
 12 30  1  0
 13 31  1  0
 15 32  1  0
 16 33  1  0
 17 34  1  0
 18 35  1  0
 19 36  1  0
 19 37  1  0
 19 38  1  0
 20 39  1  0
 20 40  1  0
 20 41  1  0
 21 42  1  0
 23 43  1  0
 23 44  1  0
 23 45  1  0
M  END
>  <ALOGPS_LOGP>  (1) 
4.32

>  <ALOGPS_LOGS>  (1) 
-4.52

>  <ALOGPS_SOLUBILITY>  (1) 
9.80e-03 g/l

>  <DATABASE_ID>  (1) 
DB01614

>  <DATABASE_NAME>  (1) 
drugbank

>  <DRUGBANK_ID>  (1) 
DB01614

>  <DRUG_GROUPS>  (1) 
approved; vet_approved

>  <EXACT_MASS>  (1) 
326.145284026

>  <FORMULA>  (1) 
C19H22N2OS

>  <GENERIC_NAME>  (1) 
Acepromazine

>  <INCHI_IDENTIFIER>  (1) 
InChI=1S/C19H22N2OS/c1-14(22)15-9-10-19-17(13-15)21(12-6-11-20(2)3)16-7-4-5-8-18(16)23-19/h4-5,7-10,13H,6,11-12H2,1-3H3

>  <INCHI_KEY>  (1) 
NOSIYYJFMPDDSA-UHFFFAOYSA-N

>  <JCHEM_ACCEPTOR_COUNT>  (1) 
3

>  <JCHEM_AVERAGE_POLARIZABILITY>  (1) 
37.168175407853

>  <JCHEM_BIOAVAILABILITY>  (1) 
1

>  <JCHEM_DONOR_COUNT>  (1) 
0

>  <JCHEM_FORMAL_CHARGE>  (1) 
0

>  <JCHEM_GHOSE_FILTER>  (1) 
1

>  <JCHEM_IUPAC>  (1) 
1-{10-[3-(dimethylamino)propyl]-10H-phenothiazin-2-yl}ethan-1-one

>  <JCHEM_LOGP>  (1) 
3.488603084666667

>  <JCHEM_MDDR_LIKE_RULE>  (1) 
0

>  <JCHEM_NUMBER_OF_RINGS>  (1) 
3

>  <JCHEM_PHYSIOLOGICAL_CHARGE>  (1) 
1

>  <JCHEM_PKA_STRONGEST_ACIDIC>  (1) 
16.0559473765781

>  <JCHEM_PKA_STRONGEST_BASIC>  (1) 
8.496976774291435

>  <JCHEM_POLAR_SURFACE_AREA>  (1) 
23.550000000000004

>  <JCHEM_REFRACTIVITY>  (1) 
99.35430000000002

>  <JCHEM_ROTATABLE_BOND_COUNT>  (1) 
5

>  <JCHEM_RULE_OF_FIVE>  (1) 
1

>  <JCHEM_TRADITIONAL_IUPAC>  (1) 
Ace

>  <JCHEM_VEBER_RULE>  (1) 
1

>  <MOLECULAR_WEIGHT>  (1) 
326.456

>  <SALTS>  (1) 
Acepromazine maleate

>  <SMILES>  (1) 
CN(C)CCCN1C2=CC=CC=C2SC2=C1C=C(C=C2)C(C)=O

$$$$
