1044
     RDKit          2D

 49 52  0  0  1  0  0  0  0  0999 V2000
    3.7935    1.1846    0.0000 F   0  0  0  0  0  0  0  0  0  0  0  0
    5.2224   -1.2904    0.0000 O   0  0  0  0  0  0  0  0  0  0  0  0
    6.6649    2.0382    0.0000 O   0  0  0  0  0  0  0  0  0  0  0  0
    8.8510    0.7948    0.0000 O   0  0  0  0  0  0  0  0  0  0  0  0
    8.1317    2.0295    0.0000 O   0  0  0  0  0  0  0  0  0  0  0  0
    6.6745   -0.4940    0.0000 N   0  0  0  0  0  0  0  0  0  0  0  0
    3.7935   -0.4654    0.0000 N   0  0  0  0  0  0  0  0  0  0  0  0
    2.3645   -1.2904    0.0000 N   0  0  0  0  0  0  0  0  0  0  0  0
    6.6649   -1.3190    0.0000 C   0  0  0  0  0  0  0  0  0  0  0  0
    7.0692   -2.0382    0.0000 C   0  0  0  0  0  0  0  0  0  0  0  0
    6.2442   -2.0286    0.0000 C   0  0  0  0  0  0  0  0  0  0  0  0
    5.9370   -0.0529    0.0000 C   0  0  0  0  0  0  0  0  0  0  0  0
    7.4220   -0.0700    0.0000 C   0  0  0  0  0  0  0  0  0  0  0  0
    5.2224   -0.4654    0.0000 C   0  0  0  0  0  0  0  0  0  0  0  0
    5.9370    0.7721    0.0000 C   0  0  0  0  0  0  0  0  0  0  0  0
    4.5080   -0.0529    0.0000 C   0  0  0  0  0  0  0  0  0  0  0  0
    3.0791   -0.0529    0.0000 C   0  0  0  0  0  0  0  0  0  0  0  0
    2.3645   -0.4654    0.0000 C   0  0  0  0  0  0  0  0  0  0  0  0
    3.7935   -1.2904    0.0000 C   0  0  0  0  0  0  0  0  0  0  0  0
    3.0791   -1.7029    0.0000 C   0  0  0  0  0  0  0  0  0  0  0  0
    7.4220    0.7893    0.0000 C   0  0  0  0  0  0  0  0  0  0  0  0
    6.6745    1.2132    0.0000 C   0  0  0  0  0  0  0  0  0  0  0  0
    5.2224    1.1846    0.0000 C   0  0  0  0  0  0  0  0  0  0  0  0
    4.5080    0.7721    0.0000 C   0  0  0  0  0  0  0  0  0  0  0  0
    1.6500   -0.0529    0.0000 C   0  0  0  0  0  0  0  0  0  0  0  0
    8.1349    1.2045    0.0000 C   0  0  0  0  0  0  0  0  0  0  0  0
    4.5080   -1.7029    0.0000 C   0  0  0  0  0  0  0  0  0  0  0  0
    0.0000    0.0000    0.0000 H   0  0  0  0  0  0  0  0  0  0  0  0
    0.0000    0.0000    0.0000 H   0  0  0  0  0  0  0  0  0  0  0  0
    0.0000    0.0000    0.0000 H   0  0  0  0  0  0  0  0  0  0  0  0
    0.0000    0.0000    0.0000 H   0  0  0  0  0  0  0  0  0  0  0  0
    0.0000    0.0000    0.0000 H   0  0  0  0  0  0  0  0  0  0  0  0
    0.0000    0.0000    0.0000 H   0  0  0  0  0  0  0  0  0  0  0  0
    0.0000    0.0000    0.0000 H   0  0  0  0  0  0  0  0  0  0  0  0
    0.0000    0.0000    0.0000 H   0  0  0  0  0  0  0  0  0  0  0  0
    0.0000    0.0000    0.0000 H   0  0  0  0  0  0  0  0  0  0  0  0
    0.0000    0.0000    0.0000 H   0  0  0  0  0  0  0  0  0  0  0  0
    0.0000    0.0000    0.0000 H   0  0  0  0  0  0  0  0  0  0  0  0
    0.0000    0.0000    0.0000 H   0  0  0  0  0  0  0  0  0  0  0  0
    0.0000    0.0000    0.0000 H   0  0  0  0  0  0  0  0  0  0  0  0
    0.0000    0.0000    0.0000 H   0  0  0  0  0  0  0  0  0  0  0  0
    0.0000    0.0000    0.0000 H   0  0  0  0  0  0  0  0  0  0  0  0
    0.0000    0.0000    0.0000 H   0  0  0  0  0  0  0  0  0  0  0  0
    0.0000    0.0000    0.0000 H   0  0  0  0  0  0  0  0  0  0  0  0
    0.0000    0.0000    0.0000 H   0  0  0  0  0  0  0  0  0  0  0  0
    0.0000    0.0000    0.0000 H   0  0  0  0  0  0  0  0  0  0  0  0
    0.0000    0.0000    0.0000 H   0  0  0  0  0  0  0  0  0  0  0  0
    0.0000    0.0000    0.0000 H   0  0  0  0  0  0  0  0  0  0  0  0
    0.0000    0.0000    0.0000 H   0  0  0  0  0  0  0  0  0  0  0  0
  1 24  1  0
  2 14  1  0
  2 27  1  0
  3 22  2  0
  4 26  1  0
  5 26  2  0
  6  9  1  0
  6 12  1  0
  6 13  1  0
  7 16  1  0
  7 17  1  0
  7 19  1  0
  8 18  1  0
  8 20  1  0
  9 10  1  0
  9 11  1  0
 10 11  1  0
 12 14  2  0
 12 15  1  0
 13 21  2  0
 14 16  1  0
 15 22  1  0
 15 23  2  0
 16 24  2  0
 17 18  1  0
 18 25  1  0
 19 20  1  0
 21 22  1  0
 21 26  1  0
 23 24  1  0
  4 28  1  0
  8 29  1  0
  9 30  1  0
 10 31  1  0
 10 32  1  0
 11 33  1  0
 11 34  1  0
 13 35  1  0
 17 36  1  0
 17 37  1  0
 18 38  1  0
 19 39  1  0
 19 40  1  0
 20 41  1  0
 20 42  1  0
 23 43  1  0
 25 44  1  0
 25 45  1  0
 25 46  1  0
 27 47  1  0
 27 48  1  0
 27 49  1  0
M  END
>  <ALOGPS_LOGP>  (1) 
-0.23

>  <ALOGPS_LOGS>  (1) 
-2.77

>  <ALOGPS_SOLUBILITY>  (1) 
6.31e-01 g/l

>  <DATABASE_ID>  (1) 
DB01044

>  <DATABASE_NAME>  (1) 
drugbank

>  <DRUGBANK_ID>  (1) 
DB01044

>  <DRUG_GROUPS>  (1) 
approved; investigational

>  <EXACT_MASS>  (1) 
375.159434412

>  <FORMULA>  (1) 
C19H22FN3O4

>  <GENERIC_NAME>  (1) 
Gatifloxacin

>  <INCHI_IDENTIFIER>  (1) 
InChI=1S/C19H22FN3O4/c1-10-8-22(6-5-21-10)16-14(20)7-12-15(18(16)27-2)23(11-3-4-11)9-13(17(12)24)19(25)26/h7,9-11,21H,3-6,8H2,1-2H3,(H,25,26)

>  <INCHI_KEY>  (1) 
XUBOMFCQGDBHNK-UHFFFAOYSA-N

>  <JCHEM_ACCEPTOR_COUNT>  (1) 
7

>  <JCHEM_AVERAGE_POLARIZABILITY>  (1) 
38.29354073254589

>  <JCHEM_BIOAVAILABILITY>  (1) 
1

>  <JCHEM_DONOR_COUNT>  (1) 
2

>  <JCHEM_FORMAL_CHARGE>  (1) 
0

>  <JCHEM_GHOSE_FILTER>  (1) 
0

>  <JCHEM_IUPAC>  (1) 
1-cyclopropyl-6-fluoro-8-methoxy-7-(3-methylpiperazin-1-yl)-4-oxo-1,4-dihydroquinoline-3-carboxylic acid

>  <JCHEM_LOGP>  (1) 
-0.5803196184255874

>  <JCHEM_MDDR_LIKE_RULE>  (1) 
0

>  <JCHEM_NUMBER_OF_RINGS>  (1) 
4

>  <JCHEM_PHYSIOLOGICAL_CHARGE>  (1) 
0

>  <JCHEM_PKA_STRONGEST_ACIDIC>  (1) 
5.68533412718849

>  <JCHEM_PKA_STRONGEST_BASIC>  (1) 
8.728713815033682

>  <JCHEM_POLAR_SURFACE_AREA>  (1) 
82.11

>  <JCHEM_REFRACTIVITY>  (1) 
98.82140000000001

>  <JCHEM_ROTATABLE_BOND_COUNT>  (1) 
4

>  <JCHEM_RULE_OF_FIVE>  (1) 
1

>  <JCHEM_TRADITIONAL_IUPAC>  (1) 
gatifloxacin

>  <JCHEM_VEBER_RULE>  (1) 
0

>  <MOLECULAR_WEIGHT>  (1) 
375.3941

>  <PRODUCTS>  (1) 
Apo-gatifloxacin; Gatifloxacin; Novo-gatifloxacin; Tequin; Tequin IV; Zymar; Zymaxid

>  <SALTS>  (1) 
Gatifloxacin sesquihydrate

>  <SECONDARY_ACCESSION_NUMBERS>  (1) 
APRD00996

>  <SMILES>  (1) 
COC1=C2N(C=C(C(O)=O)C(=O)C2=CC(F)=C1N1CCNC(C)C1)C1CC1

>  <SYNONYMS>  (1) 
1-Cyclopropyl-1,4-dihydro-6-fluoro-8-methoxy-7-(3-methyl-1-piperazinyl)-4-oxo-3-quinolinecarboxylic acid; 1-cyclopropyl-6-fluoro- 8-methoxy-7-(3-methylpiperazin-1-yl)- 4-oxo-quinoline-3-carboxylic acid; Gatifloxacin anhydrous; Gatifloxacine; Gatifloxacino; Gatifloxacinum

$$$$
