1179
     RDKit          2D

 52 56  0  0  1  0  0  0  0  0999 V2000
    4.7435    2.5059    0.0000 O   0  0  0  0  0  0  0  0  0  0  0  0
    2.3263    1.6191    0.0000 O   0  0  0  0  0  0  0  0  0  0  0  0
    5.8850    1.5868    0.0000 O   0  0  0  0  0  0  0  0  0  0  0  0
    2.8478   -2.1607    0.0000 O   0  0  0  0  0  0  0  0  0  0  0  0
    1.6500   -1.4691    0.0000 O   0  0  0  0  0  0  0  0  0  0  0  0
    5.8986   -2.0934    0.0000 O   0  0  0  0  0  0  0  0  0  0  0  0
    7.3276    0.3816    0.0000 O   0  0  0  0  0  0  0  0  0  0  0  0
    7.3276   -1.2684    0.0000 O   0  0  0  0  0  0  0  0  0  0  0  0
    3.7552    1.6191    0.0000 C   0  0  0  0  0  0  0  0  0  0  0  0
    4.4697    1.2066    0.0000 C   0  0  0  0  0  0  0  0  0  0  0  0
    4.4697    0.3816    0.0000 C   0  0  0  0  0  0  0  0  0  0  0  0
    3.0407    1.2066    0.0000 C   0  0  0  0  0  0  0  0  0  0  0  0
    3.7552   -0.0309    0.0000 C   0  0  0  0  0  0  0  0  0  0  0  0
    3.9278    2.4209    0.0000 C   0  0  0  0  0  0  0  0  0  0  0  0
    3.0407    0.3816    0.0000 C   0  0  0  0  0  0  0  0  0  0  0  0
    5.0777    1.7569    0.0000 C   0  0  0  0  0  0  0  0  0  0  0  0
    5.1841   -0.0309    0.0000 C   0  0  0  0  0  0  0  0  0  0  0  0
    3.7684   -0.8901    0.0000 C   0  0  0  0  0  0  0  0  0  0  0  0
    2.2900   -0.0365    0.0000 C   0  0  0  0  0  0  0  0  0  0  0  0
    3.0276   -1.3255    0.0000 C   0  0  0  0  0  0  0  0  0  0  0  0
    2.2834   -0.8959    0.0000 C   0  0  0  0  0  0  0  0  0  0  0  0
    5.8986    0.3816    0.0000 C   0  0  0  0  0  0  0  0  0  0  0  0
    5.1841   -0.8559    0.0000 C   0  0  0  0  0  0  0  0  0  0  0  0
    5.8986   -1.2684    0.0000 C   0  0  0  0  0  0  0  0  0  0  0  0
    6.6131   -0.0309    0.0000 C   0  0  0  0  0  0  0  0  0  0  0  0
    6.6131   -0.8559    0.0000 C   0  0  0  0  0  0  0  0  0  0  0  0
    1.9982   -2.2492    0.0000 C   0  0  0  0  0  0  0  0  0  0  0  0
    6.6131   -2.5059    0.0000 C   0  0  0  0  0  0  0  0  0  0  0  0
    7.3276    1.2066    0.0000 C   0  0  0  0  0  0  0  0  0  0  0  0
    8.0420   -0.8559    0.0000 C   0  0  0  0  0  0  0  0  0  0  0  0
    0.0000    0.0000    0.0000 H   0  0  0  0  0  0  0  0  0  0  0  0
    0.0000    0.0000    0.0000 H   0  0  0  0  0  0  0  0  0  0  0  0
    0.0000    0.0000    0.0000 H   0  0  0  0  0  0  0  0  0  0  0  0
    0.0000    0.0000    0.0000 H   0  0  0  0  0  0  0  0  0  0  0  0
    0.0000    0.0000    0.0000 H   0  0  0  0  0  0  0  0  0  0  0  0
    0.0000    0.0000    0.0000 H   0  0  0  0  0  0  0  0  0  0  0  0
    0.0000    0.0000    0.0000 H   0  0  0  0  0  0  0  0  0  0  0  0
    0.0000    0.0000    0.0000 H   0  0  0  0  0  0  0  0  0  0  0  0
    0.0000    0.0000    0.0000 H   0  0  0  0  0  0  0  0  0  0  0  0
    0.0000    0.0000    0.0000 H   0  0  0  0  0  0  0  0  0  0  0  0
    0.0000    0.0000    0.0000 H   0  0  0  0  0  0  0  0  0  0  0  0
    0.0000    0.0000    0.0000 H   0  0  0  0  0  0  0  0  0  0  0  0
    0.0000    0.0000    0.0000 H   0  0  0  0  0  0  0  0  0  0  0  0
    0.0000    0.0000    0.0000 H   0  0  0  0  0  0  0  0  0  0  0  0
    0.0000    0.0000    0.0000 H   0  0  0  0  0  0  0  0  0  0  0  0
    0.0000    0.0000    0.0000 H   0  0  0  0  0  0  0  0  0  0  0  0
    0.0000    0.0000    0.0000 H   0  0  0  0  0  0  0  0  0  0  0  0
    0.0000    0.0000    0.0000 H   0  0  0  0  0  0  0  0  0  0  0  0
    0.0000    0.0000    0.0000 H   0  0  0  0  0  0  0  0  0  0  0  0
    0.0000    0.0000    0.0000 H   0  0  0  0  0  0  0  0  0  0  0  0
    0.0000    0.0000    0.0000 H   0  0  0  0  0  0  0  0  0  0  0  0
    0.0000    0.0000    0.0000 H   0  0  0  0  0  0  0  0  0  0  0  0
  1 14  1  0
  1 16  1  0
 12  2  1  6
  3 16  2  0
  4 20  1  0
  4 27  1  0
  5 21  1  0
  5 27  1  0
  6 24  1  0
  6 28  1  0
  7 25  1  0
  7 29  1  0
  8 26  1  0
  8 30  1  0
  9 10  1  0
  9 12  1  0
  9 14  1  0
 10 11  1  0
 10 16  1  0
 11 13  1  0
 11 17  1  1
 12 15  1  0
 13 15  2  0
 13 18  1  0
 15 19  1  0
 17 22  2  0
 17 23  1  0
 18 20  2  0
 19 21  2  0
 20 21  1  0
 22 25  1  0
 23 24  2  0
 24 26  1  0
 25 26  2  0
  2 31  1  0
  9 32  1  6
 10 33  1  1
 11 34  1  0
 12 35  1  0
 14 36  1  0
 14 37  1  0
 18 38  1  0
 19 39  1  0
 22 40  1  0
 23 41  1  0
 27 42  1  0
 27 43  1  0
 28 44  1  0
 28 45  1  0
 28 46  1  0
 29 47  1  0
 29 48  1  0
 29 49  1  0
 30 50  1  0
 30 51  1  0
 30 52  1  0
M  END
>  <ALOGPS_LOGP>  (1) 
2.37

>  <ALOGPS_LOGS>  (1) 
-3.56

>  <ALOGPS_SOLUBILITY>  (1) 
1.14e-01 g/l

>  <DATABASE_ID>  (1) 
DB01179

>  <DATABASE_NAME>  (1) 
drugbank

>  <DRUGBANK_ID>  (1) 
DB01179

>  <DRUG_GROUPS>  (1) 
approved

>  <EXACT_MASS>  (1) 
414.13146768

>  <FORMULA>  (1) 
C22H22O8

>  <GENERIC_NAME>  (1) 
Podofilox

>  <INCHI_IDENTIFIER>  (1) 
InChI=1S/C22H22O8/c1-25-16-4-10(5-17(26-2)21(16)27-3)18-11-6-14-15(30-9-29-14)7-12(11)20(23)13-8-28-22(24)19(13)18/h4-7,13,18-20,23H,8-9H2,1-3H3/t13-,18+,19-,20-/m0/s1

>  <INCHI_KEY>  (1) 
YJGVMLPVUAXIQN-XVVDYKMHSA-N

>  <INTERNATIONAL_BRANDS>  (1) 
Podophyllotoxin 7

>  <JCHEM_ACCEPTOR_COUNT>  (1) 
7

>  <JCHEM_AVERAGE_POLARIZABILITY>  (1) 
41.70556165338746

>  <JCHEM_BIOAVAILABILITY>  (1) 
1

>  <JCHEM_DONOR_COUNT>  (1) 
1

>  <JCHEM_FORMAL_CHARGE>  (1) 
0

>  <JCHEM_GHOSE_FILTER>  (1) 
1

>  <JCHEM_IUPAC>  (1) 
(10R,11R,15R,16R)-16-hydroxy-10-(3,4,5-trimethoxyphenyl)-4,6,13-trioxatetracyclo[7.7.0.0³,⁷.0¹¹,¹⁵]hexadeca-1,3(7),8-trien-12-one

>  <JCHEM_LOGP>  (1) 
1.6227982693333332

>  <JCHEM_MDDR_LIKE_RULE>  (1) 
0

>  <JCHEM_NUMBER_OF_RINGS>  (1) 
5

>  <JCHEM_PHYSIOLOGICAL_CHARGE>  (1) 
0

>  <JCHEM_PKA_STRONGEST_ACIDIC>  (1) 
14.015751296514601

>  <JCHEM_PKA_STRONGEST_BASIC>  (1) 
-3.229310382904514

>  <JCHEM_POLAR_SURFACE_AREA>  (1) 
92.68000000000002

>  <JCHEM_REFRACTIVITY>  (1) 
103.905

>  <JCHEM_ROTATABLE_BOND_COUNT>  (1) 
4

>  <JCHEM_RULE_OF_FIVE>  (1) 
1

>  <JCHEM_TRADITIONAL_IUPAC>  (1) 
condylox

>  <JCHEM_VEBER_RULE>  (1) 
0

>  <MOLECULAR_WEIGHT>  (1) 
414.4053

>  <PRODUCTS>  (1) 
Condyline; Condylox; Podofilox; Wartec

>  <SECONDARY_ACCESSION_NUMBERS>  (1) 
APRD01189; DB08417

>  <SMILES>  (1) 
[H][C@]12COC(=O)[C@]1([H])[C@H](C1=CC(OC)=C(OC)C(OC)=C1)C1=CC3=C(OCO3)C=C1[C@@H]2O

>  <SYNONYMS>  (1) 
Podophyllinic acid lactone

$$$$
