1370
     RDKit          2D

  1  0  0  0  0  0  0  0  0  0999 V2000
    2.0000    0.0000    0.0000 Al  0  0  0  0  0 15  0  0  0  0  0  0
M  END
>  <DATABASE_ID>  (1) 
DB01370

>  <DATABASE_NAME>  (1) 
drugbank

>  <DRUGBANK_ID>  (1) 
DB01370

>  <DRUG_GROUPS>  (1) 
approved

>  <EXACT_MASS>  (1) 
26.981538441

>  <FORMULA>  (1) 
Al

>  <GENERIC_NAME>  (1) 
Aluminium

>  <INCHI_IDENTIFIER>  (1) 
InChI=1S/Al

>  <INCHI_KEY>  (1) 
XAGFODPZIPBFFR-UHFFFAOYSA-N

>  <JCHEM_ACCEPTOR_COUNT>  (1) 
0

>  <JCHEM_AVERAGE_POLARIZABILITY>  (1) 
1.7784

>  <JCHEM_BIOAVAILABILITY>  (1) 
1

>  <JCHEM_DONOR_COUNT>  (1) 
0

>  <JCHEM_FORMAL_CHARGE>  (1) 
0

>  <JCHEM_GHOSE_FILTER>  (1) 
0

>  <JCHEM_IUPAC>  (1) 
alumane

>  <JCHEM_LOGP>  (1) 
1.4499999999999997

>  <JCHEM_MDDR_LIKE_RULE>  (1) 
0

>  <JCHEM_NUMBER_OF_RINGS>  (1) 
0

>  <JCHEM_PHYSIOLOGICAL_CHARGE>  (1) 
0

>  <JCHEM_POLAR_SURFACE_AREA>  (1) 
0

>  <JCHEM_REFRACTIVITY>  (1) 
0

>  <JCHEM_ROTATABLE_BOND_COUNT>  (1) 
0

>  <JCHEM_RULE_OF_FIVE>  (1) 
1

>  <JCHEM_TRADITIONAL_IUPAC>  (1) 
alumane

>  <JCHEM_VEBER_RULE>  (1) 
1

>  <MOLECULAR_WEIGHT>  (1) 
26.9815

>  <PRODUCTS>  (1) 
Astringent; Buro-sol Otic Solution; Domeboro Cooling; Gelfos; Gelfos M; Gelfose; Gelfose M; Humco Aluminum Acetate (Burrow); Oti-sol; Pedi-Boro Soak Paks; Star-otic Solution; TriCalm Extra Strength; TriCalm Hydrogel; ZO MEDICAL SURFATROL Astringent

>  <SALTS>  (1) 
Aluminium phosphate; Aluminum acetate

>  <SECONDARY_ACCESSION_NUMBERS>  (1) 
DB11314

>  <SMILES>  (1) 
[Al]

>  <SYNONYMS>  (1) 
13Al; Al; Aluminio; Aluminium; Aluminium atom; Aluminum

$$$$
