
     RDKit          2D

 79 81  0  0  1  0  0  0  0  0999 V2000
    0.7145    0.4125    0.0000 C   0  0  0  0  0  0  0  0  0  0  0  0
    0.7145   -0.4125    0.0000 C   0  0  0  0  0  0  0  0  0  0  0  0
   -0.7145    0.4125    0.0000 O   0  0  0  0  0  0  0  0  0  0  0  0
    0.0000    0.8250    0.0000 C   0  0  0  0  0  0  0  0  0  0  0  0
    0.0000   -0.8250    0.0000 C   0  0  0  0  0  0  0  0  0  0  0  0
   -0.7145   -0.4125    0.0000 C   0  0  0  0  0  0  0  0  0  0  0  0
   -1.9370    2.5474    0.0000 C   0  0  0  0  0  0  0  0  0  0  0  0
   -2.7620    2.5474    0.0000 C   0  0  0  0  0  0  0  0  0  0  0  0
   -1.4521    3.2149    0.0000 O   0  0  0  0  0  0  0  0  0  0  0  0
   -0.6674    2.9599    0.0000 C   0  0  0  0  0  0  0  0  0  0  0  0
   -0.6674    2.1349    0.0000 C   0  0  0  0  0  0  0  0  0  0  0  0
    0.0000    3.4448    0.0000 O   0  0  0  0  0  0  0  0  0  0  0  0
    0.7145    5.5073    0.0000 C   0  0  0  0  0  0  0  0  0  0  0  0
    1.4289    5.9198    0.0000 O   0  0  0  0  0  0  0  0  0  0  0  0
    0.0000    4.2698    0.0000 C   0  0  0  0  0  0  0  0  0  0  0  0
   -0.7145    5.5073    0.0000 C   0  0  0  0  0  0  0  0  0  0  0  0
   -1.4289    5.9198    0.0000 O   0  0  0  0  0  0  0  0  0  0  0  0
   -0.7145    4.6823    0.0000 C   0  0  0  0  0  0  0  0  0  0  0  0
    0.0000    5.9198    0.0000 C   0  0  0  0  0  0  0  0  0  0  0  0
    0.7145    4.6823    0.0000 C   0  0  0  0  0  0  0  0  0  0  0  0
    1.4289    4.2698    0.0000 O   0  0  0  0  0  0  0  0  0  0  0  0
   -1.4289    4.2698    0.0000 N   0  0  0  0  0  0  0  0  0  0  0  0
   -2.8579    4.2698    0.0000 N   0  0  0  0  0  0  0  0  0  0  0  0
   -2.1434    4.6823    0.0000 C   0  0  0  0  0  0  0  0  0  0  0  0
   -2.1434    5.5073    0.0000 N   0  0  0  0  0  0  0  0  0  0  0  0
    0.0000    1.6500    0.0000 O   0  0  0  0  0  0  0  0  0  0  0  0
    0.0000   -1.6500    0.0000 O   0  0  0  0  0  0  0  0  0  0  0  0
    1.4289   -0.8250    0.0000 O   0  0  0  0  0  0  0  0  0  0  0  0
   -1.4289   -0.8250    0.0000 C   0  0  0  0  0  0  0  0  0  0  0  0
   -2.1434   -0.4125    0.0000 O   0  0  0  0  0  0  0  0  0  0  0  0
    2.1434    0.4125    0.0000 C   0  0  0  0  0  0  0  0  0  0  0  0
    1.4289    0.8250    0.0000 N   0  0  0  0  0  0  0  0  0  0  0  0
    0.0000    6.7448    0.0000 N   0  0  0  0  0  0  0  0  0  0  0  0
    1.4289    6.7448    0.0000 N   0  0  0  0  0  0  0  0  0  0  0  0
    0.7145    7.1573    0.0000 C   0  0  0  0  0  0  0  0  0  0  0  0
    0.7145    7.9823    0.0000 N   0  0  0  0  0  0  0  0  0  0  0  0
   -1.8646    1.1655    0.0000 C   0  0  0  0  0  0  0  0  0  0  0  0
   -2.6896    1.1655    0.0000 O   0  0  0  0  0  0  0  0  0  0  0  0
   -1.4521    1.8800    0.0000 C   0  0  0  0  0  0  0  0  0  0  0  0
   -1.2385    1.0831    0.0000 O   0  0  0  0  0  0  0  0  0  0  0  0
    0.0000    0.0000    0.0000 H   0  0  0  0  0  0  0  0  0  0  0  0
    0.0000    0.0000    0.0000 H   0  0  0  0  0  0  0  0  0  0  0  0
    0.0000    0.0000    0.0000 H   0  0  0  0  0  0  0  0  0  0  0  0
    0.0000    0.0000    0.0000 H   0  0  0  0  0  0  0  0  0  0  0  0
    0.0000    0.0000    0.0000 H   0  0  0  0  0  0  0  0  0  0  0  0
    0.0000    0.0000    0.0000 H   0  0  0  0  0  0  0  0  0  0  0  0
    0.0000    0.0000    0.0000 H   0  0  0  0  0  0  0  0  0  0  0  0
    0.0000    0.0000    0.0000 H   0  0  0  0  0  0  0  0  0  0  0  0
    0.0000    0.0000    0.0000 H   0  0  0  0  0  0  0  0  0  0  0  0
    0.0000    0.0000    0.0000 H   0  0  0  0  0  0  0  0  0  0  0  0
    0.0000    0.0000    0.0000 H   0  0  0  0  0  0  0  0  0  0  0  0
    0.0000    0.0000    0.0000 H   0  0  0  0  0  0  0  0  0  0  0  0
    0.0000    0.0000    0.0000 H   0  0  0  0  0  0  0  0  0  0  0  0
    0.0000    0.0000    0.0000 H   0  0  0  0  0  0  0  0  0  0  0  0
    0.0000    0.0000    0.0000 H   0  0  0  0  0  0  0  0  0  0  0  0
    0.0000    0.0000    0.0000 H   0  0  0  0  0  0  0  0  0  0  0  0
    0.0000    0.0000    0.0000 H   0  0  0  0  0  0  0  0  0  0  0  0
    0.0000    0.0000    0.0000 H   0  0  0  0  0  0  0  0  0  0  0  0
    0.0000    0.0000    0.0000 H   0  0  0  0  0  0  0  0  0  0  0  0
    0.0000    0.0000    0.0000 H   0  0  0  0  0  0  0  0  0  0  0  0
    0.0000    0.0000    0.0000 H   0  0  0  0  0  0  0  0  0  0  0  0
    0.0000    0.0000    0.0000 H   0  0  0  0  0  0  0  0  0  0  0  0
    0.0000    0.0000    0.0000 H   0  0  0  0  0  0  0  0  0  0  0  0
    0.0000    0.0000    0.0000 H   0  0  0  0  0  0  0  0  0  0  0  0
    0.0000    0.0000    0.0000 H   0  0  0  0  0  0  0  0  0  0  0  0
    0.0000    0.0000    0.0000 H   0  0  0  0  0  0  0  0  0  0  0  0
    0.0000    0.0000    0.0000 H   0  0  0  0  0  0  0  0  0  0  0  0
    0.0000    0.0000    0.0000 H   0  0  0  0  0  0  0  0  0  0  0  0
    0.0000    0.0000    0.0000 H   0  0  0  0  0  0  0  0  0  0  0  0
    0.0000    0.0000    0.0000 H   0  0  0  0  0  0  0  0  0  0  0  0
    0.0000    0.0000    0.0000 H   0  0  0  0  0  0  0  0  0  0  0  0
    0.0000    0.0000    0.0000 H   0  0  0  0  0  0  0  0  0  0  0  0
    0.0000    0.0000    0.0000 H   0  0  0  0  0  0  0  0  0  0  0  0
    0.0000    0.0000    0.0000 H   0  0  0  0  0  0  0  0  0  0  0  0
    0.0000    0.0000    0.0000 H   0  0  0  0  0  0  0  0  0  0  0  0
    0.0000    0.0000    0.0000 H   0  0  0  0  0  0  0  0  0  0  0  0
    0.0000    0.0000    0.0000 H   0  0  0  0  0  0  0  0  0  0  0  0
    0.0000    0.0000    0.0000 H   0  0  0  0  0  0  0  0  0  0  0  0
    0.0000    0.0000    0.0000 H   0  0  0  0  0  0  0  0  0  0  0  0
  1 32  1  6
  2  1  1  0
  2 28  1  1
  3  4  1  0
  1  4  1  0
  4 26  1  6
  5  2  1  0
  5 27  1  6
  6  5  1  0
  3  6  1  0
  6 29  1  1
  9  7  1  0
  7 39  1  0
  7  8  1  1
  9 10  1  0
 11 10  1  0
 10 12  1  1
 39 11  1  0
 11 26  1  6
 15 12  1  1
 19 13  1  0
 20 13  1  0
 13 14  1  1
 18 15  1  0
 15 20  1  0
 19 16  1  0
 16 18  1  0
 16 17  1  1
 18 22  1  1
 19 33  1  6
 20 21  1  1
 22 24  1  0
 24 23  1  0
 24 25  2  3
 29 30  1  0
 32 31  1  0
 35 33  1  0
 34 35  1  0
 35 36  2  3
 39 37  1  1
 37 38  2  0
 39 40  1  0
  1 41  1  0
  2 42  1  0
  4 43  1  0
  5 44  1  0
  6 45  1  0
  7 46  1  0
  8 47  1  0
  8 48  1  0
  8 49  1  0
 10 50  1  0
 11 51  1  0
 13 52  1  0
 14 53  1  0
 15 54  1  0
 16 55  1  0
 17 56  1  0
 18 57  1  0
 19 58  1  0
 20 59  1  0
 21 60  1  0
 22 61  1  0
 23 62  1  0
 23 63  1  0
 25 64  1  0
 27 65  1  0
 28 66  1  0
 29 67  1  0
 29 68  1  0
 30 69  1  0
 31 70  1  0
 31 71  1  0
 31 72  1  0
 32 73  1  0
 33 74  1  0
 34 75  1  0
 34 76  1  0
 36 77  1  0
 37 78  1  0
 40 79  1  0
M  END
>  <ALOGPS_LOGP>  (1) 
-2.61

>  <ALOGPS_LOGS>  (1) 
-1.66

>  <ALOGPS_SOLUBILITY>  (1) 
1.28e+01 g/l

>  <DATABASE_ID>  (1) 
DB01082

>  <DATABASE_NAME>  (1) 
drugbank

>  <DRUGBANK_ID>  (1) 
DB01082

>  <DRUG_GROUPS>  (1) 
approved; vet_approved

>  <EXACT_MASS>  (1) 
581.265669747

>  <FORMULA>  (1) 
C21H39N7O12

>  <GENERIC_NAME>  (1) 
Streptomycin

>  <INCHI_IDENTIFIER>  (1) 
InChI=1S/C21H39N7O12/c1-5-21(36,4-30)16(40-17-9(26-2)13(34)10(31)6(3-29)38-17)18(37-5)39-15-8(28-20(24)25)11(32)7(27-19(22)23)12(33)14(15)35/h4-18,26,29,31-36H,3H2,1-2H3,(H4,22,23,27)(H4,24,25,28)/t5-,6-,7+,8-,9-,10-,11+,12-,13-,14+,15+,16-,17-,18-,21+/m0/s1

>  <INCHI_KEY>  (1) 
UCSJYZPVAKXKNQ-HZYVHMACSA-N

>  <JCHEM_ACCEPTOR_COUNT>  (1) 
19

>  <JCHEM_AVERAGE_POLARIZABILITY>  (1) 
55.758161706056626

>  <JCHEM_BIOAVAILABILITY>  (1) 
0

>  <JCHEM_DONOR_COUNT>  (1) 
14

>  <JCHEM_FORMAL_CHARGE>  (1) 
0

>  <JCHEM_GHOSE_FILTER>  (1) 
0

>  <JCHEM_IUPAC>  (1) 
1-[(1R,2R,3S,4R,5R,6S)-3-carbamimidamido-4-{[(2R,3R,4R,5S)-3-{[(2S,3S,4S,5R,6S)-4,5-dihydroxy-6-(hydroxymethyl)-3-(methylamino)oxan-2-yl]oxy}-4-formyl-4-hydroxy-5-methyloxolan-2-yl]oxy}-2,5,6-trihydroxycyclohexyl]guanidine

>  <JCHEM_LOGP>  (1) 
-7.651422831600446

>  <JCHEM_MDDR_LIKE_RULE>  (1) 
1

>  <JCHEM_NUMBER_OF_RINGS>  (1) 
3

>  <JCHEM_PHYSIOLOGICAL_CHARGE>  (1) 
3

>  <JCHEM_PKA_STRONGEST_ACIDIC>  (1) 
10.877017621065788

>  <JCHEM_PKA_STRONGEST_BASIC>  (1) 
11.898544157276417

>  <JCHEM_POLAR_SURFACE_AREA>  (1) 
331.43

>  <JCHEM_REFRACTIVITY>  (1) 
149.4707

>  <JCHEM_ROTATABLE_BOND_COUNT>  (1) 
9

>  <JCHEM_RULE_OF_FIVE>  (1) 
0

>  <JCHEM_TRADITIONAL_IUPAC>  (1) 
streptomycin

>  <JCHEM_VEBER_RULE>  (1) 
0

>  <MOLECULAR_WEIGHT>  (1) 
581.5741

>  <PRODUCTS>  (1) 
Streptomycin; Streptomycin Sulfate Injection USP 1g/2.5ml; Streptomycin for Injection USP

>  <SALTS>  (1) 
Streptomycin Sulfate

>  <SECONDARY_ACCESSION_NUMBERS>  (1) 
APRD00412

>  <SMILES>  (1) 
CN[C@H]1[C@H](O)[C@@H](O)[C@H](CO)O[C@H]1O[C@H]1[C@H](O[C@H]2[C@H](O)[C@@H](O)[C@H](NC(N)=N)[C@@H](O)[C@@H]2NC(N)=N)O[C@@H](C)[C@]1(O)C=O

>  <SYNONYMS>  (1) 
2,4-diguanidino-3,5,6-trihydroxycyclohexyl 5-deoxy-2-O-(2-deoxy-2-methylamino-alpha-L-glucopyranosyl)-3-C-formyl-beta-L-lyxopentanofuranoside; Estreptomicina; Streptomicina; Streptomyzin

$$$$
