 
     RDKit          2D

 43 46  0  0  0  0  0  0  0  0999 V2000
    5.2800   -8.2087    0.0000 N   0  0  0  0  0  0  0  0  0  0  0  0
    5.2800   -9.0337    0.0000 C   0  0  0  0  0  0  0  0  0  0  0  0
    6.0646   -9.2887    0.0000 N   0  0  0  0  0  0  0  0  0  0  0  0
    6.5496   -8.6212    0.0000 N   0  0  0  0  0  0  0  0  0  0  0  0
    6.0646   -7.9538    0.0000 C   0  0  0  0  0  0  0  0  0  0  0  0
    7.3746   -8.6212    0.0000 C   0  0  0  0  0  0  0  0  0  0  0  0
    7.7893   -9.3397    0.0000 C   0  0  0  0  0  0  0  0  0  0  0  0
    8.6143   -9.3397    0.0000 C   0  0  0  0  0  0  0  0  0  0  0  0
    9.0269   -8.6253    0.0000 C   0  0  0  0  0  0  0  0  0  0  0  0
    8.6121   -7.9069    0.0000 C   0  0  0  0  0  0  0  0  0  0  0  0
    7.7871   -7.9068    0.0000 C   0  0  0  0  0  0  0  0  0  0  0  0
    9.8587   -8.6254    0.0000 C   0  0  0  0  0  0  0  0  0  0  0  0
   10.2731   -7.9079    0.0000 O   0  0  0  0  0  0  0  0  0  0  0  0
   10.2694   -9.3368    0.0000 O   0  0  0  0  0  0  0  0  0  0  0  0
    4.5655   -9.4462    0.0000 C   0  0  0  0  0  0  0  0  0  0  0  0
    3.8611   -9.0394    0.0000 C   0  0  0  0  0  0  0  0  0  0  0  0
    3.1465   -9.4518    0.0000 C   0  0  0  0  0  0  0  0  0  0  0  0
    3.1464  -10.2768    0.0000 C   0  0  0  0  0  0  0  0  0  0  0  0
    3.8509  -10.6837    0.0000 C   0  0  0  0  0  0  0  0  0  0  0  0
    4.5654  -10.2712    0.0000 C   0  0  0  0  0  0  0  0  0  0  0  0
    5.2898  -10.6896    0.0000 O   0  0  0  0  0  0  0  0  0  0  0  0
    6.0646   -7.1288    0.0000 C   0  0  0  0  0  0  0  0  0  0  0  0
    6.7752   -6.7186    0.0000 C   0  0  0  0  0  0  0  0  0  0  0  0
    6.7753   -5.8936    0.0000 C   0  0  0  0  0  0  0  0  0  0  0  0
    6.0608   -5.4811    0.0000 C   0  0  0  0  0  0  0  0  0  0  0  0
    5.3502   -5.8913    0.0000 C   0  0  0  0  0  0  0  0  0  0  0  0
    5.3502   -6.7163    0.0000 C   0  0  0  0  0  0  0  0  0  0  0  0
    4.6419   -7.1253    0.0000 O   0  0  0  0  0  0  0  0  0  0  0  0
    0.0000    0.0000    0.0000 H   0  0  0  0  0  0  0  0  0  0  0  0
    0.0000    0.0000    0.0000 H   0  0  0  0  0  0  0  0  0  0  0  0
    0.0000    0.0000    0.0000 H   0  0  0  0  0  0  0  0  0  0  0  0
    0.0000    0.0000    0.0000 H   0  0  0  0  0  0  0  0  0  0  0  0
    0.0000    0.0000    0.0000 H   0  0  0  0  0  0  0  0  0  0  0  0
    0.0000    0.0000    0.0000 H   0  0  0  0  0  0  0  0  0  0  0  0
    0.0000    0.0000    0.0000 H   0  0  0  0  0  0  0  0  0  0  0  0
    0.0000    0.0000    0.0000 H   0  0  0  0  0  0  0  0  0  0  0  0
    0.0000    0.0000    0.0000 H   0  0  0  0  0  0  0  0  0  0  0  0
    0.0000    0.0000    0.0000 H   0  0  0  0  0  0  0  0  0  0  0  0
    0.0000    0.0000    0.0000 H   0  0  0  0  0  0  0  0  0  0  0  0
    0.0000    0.0000    0.0000 H   0  0  0  0  0  0  0  0  0  0  0  0
    0.0000    0.0000    0.0000 H   0  0  0  0  0  0  0  0  0  0  0  0
    0.0000    0.0000    0.0000 H   0  0  0  0  0  0  0  0  0  0  0  0
    0.0000    0.0000    0.0000 H   0  0  0  0  0  0  0  0  0  0  0  0
  1  2  1  0
  2  3  2  0
  3  4  1  0
  4  5  1  0
  1  5  2  0
  4  6  1  0
  6  7  2  0
  7  8  1  0
  8  9  2  0
  9 10  1  0
 10 11  2  0
  6 11  1  0
  9 12  1  0
 12 13  2  0
 12 14  1  0
  2 15  1  0
 15 16  2  0
 16 17  1  0
 17 18  2  0
 18 19  1  0
 19 20  2  0
 15 20  1  0
 20 21  1  0
  5 22  1  0
 22 23  2  0
 23 24  1  0
 24 25  2  0
 25 26  1  0
 26 27  2  0
 22 27  1  0
 27 28  1  0
  7 29  1  0
  8 30  1  0
 10 31  1  0
 11 32  1  0
 14 33  1  0
 16 34  1  0
 17 35  1  0
 18 36  1  0
 19 37  1  0
 21 38  1  0
 23 39  1  0
 24 40  1  0
 25 41  1  0
 26 42  1  0
 28 43  1  0
M  END
>  <ALOGPS_LOGP>  (1) 
4.01

>  <ALOGPS_LOGS>  (1) 
-4.04

>  <ALOGPS_SOLUBILITY>  (1) 
3.43e-02 g/l

>  <DATABASE_ID>  (1) 
DB01609

>  <DATABASE_NAME>  (1) 
drugbank

>  <DRUGBANK_ID>  (1) 
DB01609

>  <DRUG_GROUPS>  (1) 
approved; investigational

>  <EXACT_MASS>  (1) 
373.106255983

>  <FORMULA>  (1) 
C21H15N3O4

>  <GENERIC_NAME>  (1) 
Deferasirox

>  <INCHI_IDENTIFIER>  (1) 
InChI=1S/C21H15N3O4/c25-17-7-3-1-5-15(17)19-22-20(16-6-2-4-8-18(16)26)24(23-19)14-11-9-13(10-12-14)21(27)28/h1-12,25-26H,(H,27,28)

>  <INCHI_KEY>  (1) 
BOFQWVMAQOTZIW-UHFFFAOYSA-N

>  <JCHEM_ACCEPTOR_COUNT>  (1) 
6

>  <JCHEM_AVERAGE_POLARIZABILITY>  (1) 
38.5160719334766

>  <JCHEM_BIOAVAILABILITY>  (1) 
1

>  <JCHEM_DONOR_COUNT>  (1) 
3

>  <JCHEM_FORMAL_CHARGE>  (1) 
0

>  <JCHEM_GHOSE_FILTER>  (1) 
1

>  <JCHEM_IUPAC>  (1) 
4-[bis(2-hydroxyphenyl)-1H-1,2,4-triazol-1-yl]benzoic acid

>  <JCHEM_LOGP>  (1) 
4.744616195333334

>  <JCHEM_MDDR_LIKE_RULE>  (1) 
0

>  <JCHEM_NUMBER_OF_RINGS>  (1) 
4

>  <JCHEM_PHYSIOLOGICAL_CHARGE>  (1) 
-1

>  <JCHEM_PKA>  (1) 
8.409876110207017

>  <JCHEM_PKA_STRONGEST_ACIDIC>  (1) 
4.548632270003958

>  <JCHEM_PKA_STRONGEST_BASIC>  (1) 
0.18913719084658243

>  <JCHEM_POLAR_SURFACE_AREA>  (1) 
108.47000000000001

>  <JCHEM_REFRACTIVITY>  (1) 
125.3245

>  <JCHEM_ROTATABLE_BOND_COUNT>  (1) 
4

>  <JCHEM_RULE_OF_FIVE>  (1) 
1

>  <JCHEM_TRADITIONAL_IUPAC>  (1) 
deferasirox

>  <JCHEM_VEBER_RULE>  (1) 
0

>  <MOLECULAR_WEIGHT>  (1) 
373.3615

>  <PRODUCTS>  (1) 
Apo-deferasirox; Exjade; Jadenu; Sandoz Deferasirox; Taro-deferasirox; Teva-deferasirox

>  <SMILES>  (1) 
OC(=O)C1=CC=C(C=C1)N1N=C(N=C1C1=CC=CC=C1O)C1=CC=CC=C1O

>  <SYNONYMS>  (1) 
Deferasiroxum

$$$$
