1349
     RDKit          2D

 52 56  0  0  0  0  0  0  0  0999 V2000
    4.5080    1.1005    0.0000 O   0  0  0  0  0  0  0  0  0  0  0  0
    5.9370    1.1005    0.0000 N   0  0  0  0  0  0  0  0  0  0  0  0
    7.3889    1.0719    0.0000 N   0  0  0  0  0  0  0  0  0  0  0  0
    8.1365    2.3552    0.0000 N   0  0  0  0  0  0  0  0  0  0  0  0
    4.5472   -2.2765    0.0000 N   0  0  0  0  0  0  0  0  0  0  0  0
    3.8797   -3.4326    0.0000 N   0  0  0  0  0  0  0  0  0  0  0  0
    5.0993   -2.8896    0.0000 N   0  0  0  0  0  0  0  0  0  0  0  0
    4.6868   -3.6041    0.0000 N   0  0  0  0  0  0  0  0  0  0  0  0
    5.9370    2.7505    0.0000 C   0  0  0  0  0  0  0  0  0  0  0  0
    6.6515    2.3380    0.0000 C   0  0  0  0  0  0  0  0  0  0  0  0
    5.2224    2.3380    0.0000 C   0  0  0  0  0  0  0  0  0  0  0  0
    6.6515    1.5130    0.0000 C   0  0  0  0  0  0  0  0  0  0  0  0
    5.9370    0.2755    0.0000 C   0  0  0  0  0  0  0  0  0  0  0  0
    5.2224    1.5130    0.0000 C   0  0  0  0  0  0  0  0  0  0  0  0
    7.3889    2.7792    0.0000 C   0  0  0  0  0  0  0  0  0  0  0  0
    5.2224   -0.1370    0.0000 C   0  0  0  0  0  0  0  0  0  0  0  0
    8.1365    1.4958    0.0000 C   0  0  0  0  0  0  0  0  0  0  0  0
    5.2224   -0.9621    0.0000 C   0  0  0  0  0  0  0  0  0  0  0  0
    4.5080    0.2755    0.0000 C   0  0  0  0  0  0  0  0  0  0  0  0
    7.3795    3.6041    0.0000 C   0  0  0  0  0  0  0  0  0  0  0  0
    3.7935   -0.9621    0.0000 C   0  0  0  0  0  0  0  0  0  0  0  0
    4.5080   -1.3746    0.0000 C   0  0  0  0  0  0  0  0  0  0  0  0
    3.7935   -0.1370    0.0000 C   0  0  0  0  0  0  0  0  0  0  0  0
    3.0791   -1.3746    0.0000 C   0  0  0  0  0  0  0  0  0  0  0  0
    8.8494    1.0806    0.0000 C   0  0  0  0  0  0  0  0  0  0  0  0
    3.0791   -2.1996    0.0000 C   0  0  0  0  0  0  0  0  0  0  0  0
    2.3645   -0.9621    0.0000 C   0  0  0  0  0  0  0  0  0  0  0  0
    2.3645   -2.6121    0.0000 C   0  0  0  0  0  0  0  0  0  0  0  0
    1.6500   -1.3746    0.0000 C   0  0  0  0  0  0  0  0  0  0  0  0
    3.7935   -2.6121    0.0000 C   0  0  0  0  0  0  0  0  0  0  0  0
    1.6500   -2.1996    0.0000 C   0  0  0  0  0  0  0  0  0  0  0  0
    0.0000    0.0000    0.0000 H   0  0  0  0  0  0  0  0  0  0  0  0
    0.0000    0.0000    0.0000 H   0  0  0  0  0  0  0  0  0  0  0  0
    0.0000    0.0000    0.0000 H   0  0  0  0  0  0  0  0  0  0  0  0
    0.0000    0.0000    0.0000 H   0  0  0  0  0  0  0  0  0  0  0  0
    0.0000    0.0000    0.0000 H   0  0  0  0  0  0  0  0  0  0  0  0
    0.0000    0.0000    0.0000 H   0  0  0  0  0  0  0  0  0  0  0  0
    0.0000    0.0000    0.0000 H   0  0  0  0  0  0  0  0  0  0  0  0
    0.0000    0.0000    0.0000 H   0  0  0  0  0  0  0  0  0  0  0  0
    0.0000    0.0000    0.0000 H   0  0  0  0  0  0  0  0  0  0  0  0
    0.0000    0.0000    0.0000 H   0  0  0  0  0  0  0  0  0  0  0  0
    0.0000    0.0000    0.0000 H   0  0  0  0  0  0  0  0  0  0  0  0
    0.0000    0.0000    0.0000 H   0  0  0  0  0  0  0  0  0  0  0  0
    0.0000    0.0000    0.0000 H   0  0  0  0  0  0  0  0  0  0  0  0
    0.0000    0.0000    0.0000 H   0  0  0  0  0  0  0  0  0  0  0  0
    0.0000    0.0000    0.0000 H   0  0  0  0  0  0  0  0  0  0  0  0
    0.0000    0.0000    0.0000 H   0  0  0  0  0  0  0  0  0  0  0  0
    0.0000    0.0000    0.0000 H   0  0  0  0  0  0  0  0  0  0  0  0
    0.0000    0.0000    0.0000 H   0  0  0  0  0  0  0  0  0  0  0  0
    0.0000    0.0000    0.0000 H   0  0  0  0  0  0  0  0  0  0  0  0
    0.0000    0.0000    0.0000 H   0  0  0  0  0  0  0  0  0  0  0  0
    0.0000    0.0000    0.0000 H   0  0  0  0  0  0  0  0  0  0  0  0
  1 14  2  0
  2 12  1  0
  2 13  1  0
  2 14  1  0
  3 12  2  0
  3 17  1  0
  4 15  1  0
  4 17  2  0
  5  7  1  0
  5 30  2  0
  6  8  2  0
  6 30  1  0
  7  8  1  0
  9 10  1  0
  9 11  1  0
 10 12  1  0
 10 15  2  0
 11 14  1  0
 13 16  1  0
 15 20  1  0
 16 18  2  0
 16 19  1  0
 17 25  1  0
 18 22  1  0
 19 23  2  0
 21 22  2  0
 21 23  1  0
 21 24  1  0
 24 26  1  0
 24 27  2  0
 26 28  2  0
 26 30  1  0
 27 29  1  0
 28 31  1  0
 29 31  2  0
  7 32  1  0
  9 33  1  0
  9 34  1  0
 11 35  1  0
 11 36  1  0
 13 37  1  0
 13 38  1  0
 18 39  1  0
 19 40  1  0
 20 41  1  0
 20 42  1  0
 20 43  1  0
 22 44  1  0
 23 45  1  0
 25 46  1  0
 25 47  1  0
 25 48  1  0
 27 49  1  0
 28 50  1  0
 29 51  1  0
 31 52  1  0
M  END
>  <ALOGPS_LOGP>  (1) 
3.07

>  <ALOGPS_LOGS>  (1) 
-4.10

>  <ALOGPS_SOLUBILITY>  (1) 
3.25e-02 g/l

>  <DATABASE_ID>  (1) 
DB01349

>  <DATABASE_NAME>  (1) 
drugbank

>  <DRUGBANK_ID>  (1) 
DB01349

>  <DRUG_GROUPS>  (1) 
approved

>  <EXACT_MASS>  (1) 
411.180758329

>  <FORMULA>  (1) 
C23H21N7O

>  <GENERIC_NAME>  (1) 
Tasosartan

>  <INCHI_IDENTIFIER>  (1) 
InChI=1S/C23H21N7O/c1-14-18-11-12-21(31)30(23(18)25-15(2)24-14)13-16-7-9-17(10-8-16)19-5-3-4-6-20(19)22-26-28-29-27-22/h3-10H,11-13H2,1-2H3,(H,26,27,28,29)

>  <INCHI_KEY>  (1) 
ADXGNEYLLLSOAR-UHFFFAOYSA-N

>  <JCHEM_ACCEPTOR_COUNT>  (1) 
6

>  <JCHEM_AVERAGE_POLARIZABILITY>  (1) 
44.33635263675694

>  <JCHEM_BIOAVAILABILITY>  (1) 
1

>  <JCHEM_DONOR_COUNT>  (1) 
1

>  <JCHEM_FORMAL_CHARGE>  (1) 
0

>  <JCHEM_GHOSE_FILTER>  (1) 
0

>  <JCHEM_IUPAC>  (1) 
2,4-dimethyl-8-({4-[2-(2H-1,2,3,4-tetrazol-5-yl)phenyl]phenyl}methyl)-5H,6H,7H,8H-pyrido[2,3-d]pyrimidin-7-one

>  <JCHEM_LOGP>  (1) 
4.177880046

>  <JCHEM_MDDR_LIKE_RULE>  (1) 
0

>  <JCHEM_NUMBER_OF_RINGS>  (1) 
5

>  <JCHEM_PHYSIOLOGICAL_CHARGE>  (1) 
0

>  <JCHEM_PKA_STRONGEST_ACIDIC>  (1) 
7.399417267334851

>  <JCHEM_PKA_STRONGEST_BASIC>  (1) 
2.7896680100232274

>  <JCHEM_POLAR_SURFACE_AREA>  (1) 
100.55

>  <JCHEM_REFRACTIVITY>  (1) 
130.6065

>  <JCHEM_ROTATABLE_BOND_COUNT>  (1) 
4

>  <JCHEM_RULE_OF_FIVE>  (1) 
1

>  <JCHEM_TRADITIONAL_IUPAC>  (1) 
tasosartan

>  <JCHEM_VEBER_RULE>  (1) 
0

>  <MOLECULAR_WEIGHT>  (1) 
411.4591

>  <SMILES>  (1) 
CC1=NC(C)=C2CCC(=O)N(CC3=CC=C(C=C3)C3=CC=CC=C3C3=NNN=N3)C2=N1

$$$$
