
     RDKit          2D

 42 44  0  0  1  0  0  0  0  0999 V2000
   17.8239   -8.7812    0.0000 C   0  0  0  0  0  0  0  0  0  0  0  0
   17.8239   -9.6062    0.0000 N   0  0  0  0  0  0  0  0  0  0  0  0
   18.5384  -10.0187    0.0000 C   0  0  0  0  0  0  0  0  0  0  0  0
   19.2529   -9.6062    0.0000 C   0  0  0  0  0  0  0  0  0  0  0  0
   19.2529   -8.7812    0.0000 C   0  0  0  0  0  0  0  0  0  0  0  0
   18.5384   -8.3687    0.0000 S   0  0  0  0  0  0  0  0  0  0  0  0
   16.9989   -8.7812    0.0000 C   0  0  0  0  0  0  0  0  0  0  0  0
   16.9989   -9.6062    0.0000 C   0  0  0  0  0  0  0  0  0  0  0  0
   16.2844   -8.3687    0.0000 N   0  0  0  0  0  0  0  0  0  0  0  0
   15.5698   -8.7812    0.0000 C   0  0  0  0  0  0  0  0  0  0  0  0
   15.5698   -9.6062    0.0000 O   0  0  0  0  0  0  0  0  0  0  0  0
   16.2844  -10.0187    0.0000 O   0  0  0  0  0  0  0  0  0  0  0  0
   14.8553   -8.3687    0.0000 C   0  0  0  0  0  0  0  0  0  0  0  0
   19.9784  -10.0253    0.0000 C   0  0  0  0  0  0  0  0  0  0  0  0
   18.5384  -10.8436    0.0000 C   0  0  0  0  0  0  0  0  0  0  0  0
   17.8140  -11.2620    0.0000 O   0  0  0  0  0  0  0  0  0  0  0  0
   19.2429  -11.2505    0.0000 O   0  0  0  0  0  0  0  0  0  0  0  0
   14.1293   -8.7881    0.0000 C   0  0  0  0  0  0  0  0  0  0  0  0
   13.4158   -8.3761    0.0000 C   0  0  0  0  0  0  0  0  0  0  0  0
   12.7021   -8.7881    0.0000 C   0  0  0  0  0  0  0  0  0  0  0  0
   12.7021   -9.6121    0.0000 C   0  0  0  0  0  0  0  0  0  0  0  0
   13.4158  -10.0241    0.0000 C   0  0  0  0  0  0  0  0  0  0  0  0
   14.1293   -9.6121    0.0000 C   0  0  0  0  0  0  0  0  0  0  0  0
   14.8553   -7.5410    0.0000 N   0  0  0  0  0  0  0  0  0  0  0  0
   11.9953  -10.0203    0.0000 O   0  0  0  0  0  0  0  0  0  0  0  0
    0.0000    0.0000    0.0000 H   0  0  0  0  0  0  0  0  0  0  0  0
    0.0000    0.0000    0.0000 H   0  0  0  0  0  0  0  0  0  0  0  0
    0.0000    0.0000    0.0000 H   0  0  0  0  0  0  0  0  0  0  0  0
    0.0000    0.0000    0.0000 H   0  0  0  0  0  0  0  0  0  0  0  0
    0.0000    0.0000    0.0000 H   0  0  0  0  0  0  0  0  0  0  0  0
    0.0000    0.0000    0.0000 H   0  0  0  0  0  0  0  0  0  0  0  0
    0.0000    0.0000    0.0000 H   0  0  0  0  0  0  0  0  0  0  0  0
    0.0000    0.0000    0.0000 H   0  0  0  0  0  0  0  0  0  0  0  0
    0.0000    0.0000    0.0000 H   0  0  0  0  0  0  0  0  0  0  0  0
    0.0000    0.0000    0.0000 H   0  0  0  0  0  0  0  0  0  0  0  0
    0.0000    0.0000    0.0000 H   0  0  0  0  0  0  0  0  0  0  0  0
    0.0000    0.0000    0.0000 H   0  0  0  0  0  0  0  0  0  0  0  0
    0.0000    0.0000    0.0000 H   0  0  0  0  0  0  0  0  0  0  0  0
    0.0000    0.0000    0.0000 H   0  0  0  0  0  0  0  0  0  0  0  0
    0.0000    0.0000    0.0000 H   0  0  0  0  0  0  0  0  0  0  0  0
    0.0000    0.0000    0.0000 H   0  0  0  0  0  0  0  0  0  0  0  0
    0.0000    0.0000    0.0000 H   0  0  0  0  0  0  0  0  0  0  0  0
  1  2  1  0
  2  3  1  0
  3  4  2  0
  4  5  1  0
  5  6  1  0
  1  6  1  0
  1  7  1  0
  7  8  1  0
  2  8  1  0
  7  9  1  1
  9 10  1  0
 10 11  2  0
  8 12  2  0
 13 10  1  6
  4 14  1  0
  3 15  1  0
 15 16  2  0
 15 17  1  0
 13 18  1  0
 18 19  2  0
 19 20  1  0
 20 21  2  0
 21 22  1  0
 22 23  2  0
 18 23  1  0
 13 24  1  0
 21 25  1  0
  1 26  1  6
  5 27  1  0
  5 28  1  0
  7 29  1  0
  9 30  1  0
 13 31  1  0
 14 32  1  0
 14 33  1  0
 14 34  1  0
 17 35  1  0
 19 36  1  0
 20 37  1  0
 22 38  1  0
 23 39  1  0
 24 40  1  0
 24 41  1  0
 25 42  1  0
M  END
>  <ALOGPS_LOGP>  (1) 
0.51

>  <ALOGPS_LOGS>  (1) 
-2.96

>  <ALOGPS_SOLUBILITY>  (1) 
3.99e-01 g/l

>  <DATABASE_ID>  (1) 
DB01140

>  <DATABASE_NAME>  (1) 
drugbank

>  <DRUGBANK_ID>  (1) 
DB01140

>  <DRUG_GROUPS>  (1) 
approved; vet_approved; withdrawn

>  <EXACT_MASS>  (1) 
363.088891359

>  <FORMULA>  (1) 
C16H17N3O5S

>  <GENERIC_NAME>  (1) 
Cefadroxil

>  <INCHI_IDENTIFIER>  (1) 
InChI=1S/C16H17N3O5S/c1-7-6-25-15-11(14(22)19(15)12(7)16(23)24)18-13(21)10(17)8-2-4-9(20)5-3-8/h2-5,10-11,15,20H,6,17H2,1H3,(H,18,21)(H,23,24)/t10-,11-,15-/m1/s1

>  <INCHI_KEY>  (1) 
BOEGTKLJZSQCCD-UEKVPHQBSA-N

>  <INTERNATIONAL_BRANDS>  (1) 
Baxan; Bidocef; Cefamox; Duracef; Oracefal

>  <JCHEM_ACCEPTOR_COUNT>  (1) 
6

>  <JCHEM_AVERAGE_POLARIZABILITY>  (1) 
35.86177537632552

>  <JCHEM_BIOAVAILABILITY>  (1) 
1

>  <JCHEM_DONOR_COUNT>  (1) 
4

>  <JCHEM_FORMAL_CHARGE>  (1) 
0

>  <JCHEM_GHOSE_FILTER>  (1) 
0

>  <JCHEM_IUPAC>  (1) 
(6R,7R)-7-[(2R)-2-amino-2-(4-hydroxyphenyl)acetamido]-3-methyl-8-oxo-5-thia-1-azabicyclo[4.2.0]oct-2-ene-2-carboxylic acid

>  <JCHEM_LOGP>  (1) 
-2.4485235229519144

>  <JCHEM_MDDR_LIKE_RULE>  (1) 
0

>  <JCHEM_NUMBER_OF_RINGS>  (1) 
3

>  <JCHEM_PHYSIOLOGICAL_CHARGE>  (1) 
0

>  <JCHEM_PKA>  (1) 
9.47951977832049

>  <JCHEM_PKA_STRONGEST_ACIDIC>  (1) 
3.445403259534226

>  <JCHEM_PKA_STRONGEST_BASIC>  (1) 
7.429743431066661

>  <JCHEM_POLAR_SURFACE_AREA>  (1) 
132.96

>  <JCHEM_REFRACTIVITY>  (1) 
90.95450000000001

>  <JCHEM_ROTATABLE_BOND_COUNT>  (1) 
4

>  <JCHEM_RULE_OF_FIVE>  (1) 
1

>  <JCHEM_TRADITIONAL_IUPAC>  (1) 
cephadroxil

>  <JCHEM_VEBER_RULE>  (1) 
0

>  <MOLECULAR_WEIGHT>  (1) 
363.388

>  <PRODUCTS>  (1) 
Apo-cefadroxil; Cefadroxil; Duricef; Nu-cefadroxil, 500 mg; Pro-cefadroxil - 500; Teva-cefadroxil

>  <SALTS>  (1) 
Cefadroxil hemihydrate; Cefadroxil monohydrate; Cefadroxil sodium

>  <SECONDARY_ACCESSION_NUMBERS>  (1) 
APRD00196

>  <SMILES>  (1) 
[H][C@]12SCC(C)=C(N1C(=O)[C@H]2NC(=O)[C@H](N)C1=CC=C(O)C=C1)C(O)=O

>  <SYNONYMS>  (1) 
CDX; Cefadroxil anhydrous; Cefadroxilo; Cefadroxilum; Cephadroxil; D-Cefadroxil

$$$$
