1615
     RDKit          2D

 45 47  0  0  1  0  0  0  0  0999 V2000
    3.6958   -1.9664    0.0000 S   0  0  0  0  0  0  0  0  0  0  0  0
    6.4888    0.4289    0.0000 O   0  0  0  0  0  0  0  0  0  0  0  0
    3.6958   -0.3823    0.0000 N   0  0  0  0  0  0  0  0  0  0  0  0
    3.0099    1.5979    0.0000 N   0  0  0  0  0  0  0  0  0  0  0  0
    3.0099    0.8058    0.0000 C   0  0  0  0  0  0  0  0  0  0  0  0
    3.6958    0.4098    0.0000 C   0  0  0  0  0  0  0  0  0  0  0  0
    4.3818   -0.7783    0.0000 C   0  0  0  0  0  0  0  0  0  0  0  0
    3.0099   -0.7783    0.0000 C   0  0  0  0  0  0  0  0  0  0  0  0
    2.3240    0.4098    0.0000 C   0  0  0  0  0  0  0  0  0  0  0  0
    4.3818   -1.5704    0.0000 C   0  0  0  0  0  0  0  0  0  0  0  0
    3.0099   -1.5704    0.0000 C   0  0  0  0  0  0  0  0  0  0  0  0
    5.0899   -0.3548    0.0000 C   0  0  0  0  0  0  0  0  0  0  0  0
    2.3240    1.9939    0.0000 C   0  0  0  0  0  0  0  0  0  0  0  0
    3.6958    1.9939    0.0000 C   0  0  0  0  0  0  0  0  0  0  0  0
    2.3018   -0.3548    0.0000 C   0  0  0  0  0  0  0  0  0  0  0  0
    5.8075   -0.7619    0.0000 C   0  0  0  0  0  0  0  0  0  0  0  0
    5.0899   -1.9939    0.0000 C   0  0  0  0  0  0  0  0  0  0  0  0
    2.3018   -1.9939    0.0000 C   0  0  0  0  0  0  0  0  0  0  0  0
    5.8075   -1.5869    0.0000 C   0  0  0  0  0  0  0  0  0  0  0  0
    1.5841   -0.7619    0.0000 C   0  0  0  0  0  0  0  0  0  0  0  0
    1.5841   -1.5869    0.0000 C   0  0  0  0  0  0  0  0  0  0  0  0
    6.4920   -0.3632    0.0000 C   0  0  0  0  0  0  0  0  0  0  0  0
    7.1794   -0.7565    0.0000 C   0  0  0  0  0  0  0  0  0  0  0  0
    0.0000    0.0000    0.0000 H   0  0  0  0  0  0  0  0  0  0  0  0
    0.0000    0.0000    0.0000 H   0  0  0  0  0  0  0  0  0  0  0  0
    0.0000    0.0000    0.0000 H   0  0  0  0  0  0  0  0  0  0  0  0
    0.0000    0.0000    0.0000 H   0  0  0  0  0  0  0  0  0  0  0  0
    0.0000    0.0000    0.0000 H   0  0  0  0  0  0  0  0  0  0  0  0
    0.0000    0.0000    0.0000 H   0  0  0  0  0  0  0  0  0  0  0  0
    0.0000    0.0000    0.0000 H   0  0  0  0  0  0  0  0  0  0  0  0
    0.0000    0.0000    0.0000 H   0  0  0  0  0  0  0  0  0  0  0  0
    0.0000    0.0000    0.0000 H   0  0  0  0  0  0  0  0  0  0  0  0
    0.0000    0.0000    0.0000 H   0  0  0  0  0  0  0  0  0  0  0  0
    0.0000    0.0000    0.0000 H   0  0  0  0  0  0  0  0  0  0  0  0
    0.0000    0.0000    0.0000 H   0  0  0  0  0  0  0  0  0  0  0  0
    0.0000    0.0000    0.0000 H   0  0  0  0  0  0  0  0  0  0  0  0
    0.0000    0.0000    0.0000 H   0  0  0  0  0  0  0  0  0  0  0  0
    0.0000    0.0000    0.0000 H   0  0  0  0  0  0  0  0  0  0  0  0
    0.0000    0.0000    0.0000 H   0  0  0  0  0  0  0  0  0  0  0  0
    0.0000    0.0000    0.0000 H   0  0  0  0  0  0  0  0  0  0  0  0
    0.0000    0.0000    0.0000 H   0  0  0  0  0  0  0  0  0  0  0  0
    0.0000    0.0000    0.0000 H   0  0  0  0  0  0  0  0  0  0  0  0
    0.0000    0.0000    0.0000 H   0  0  0  0  0  0  0  0  0  0  0  0
    0.0000    0.0000    0.0000 H   0  0  0  0  0  0  0  0  0  0  0  0
    0.0000    0.0000    0.0000 H   0  0  0  0  0  0  0  0  0  0  0  0
  1 10  1  0
  1 11  1  0
  2 22  2  0
  3  6  1  0
  3  7  1  0
  3  8  1  0
  4  5  1  0
  4 13  1  0
  4 14  1  0
  5  6  1  0
  5  9  1  0
  7 10  2  0
  7 12  1  0
  8 11  2  0
  8 15  1  0
 10 17  1  0
 11 18  1  0
 12 16  2  0
 15 20  2  0
 16 19  1  0
 16 22  1  0
 17 19  2  0
 18 21  2  0
 20 21  1  0
 22 23  1  0
  5 24  1  0
  6 25  1  0
  6 26  1  0
  9 27  1  0
  9 28  1  0
  9 29  1  0
 12 30  1  0
 13 31  1  0
 13 32  1  0
 13 33  1  0
 14 34  1  0
 14 35  1  0
 14 36  1  0
 15 37  1  0
 17 38  1  0
 18 39  1  0
 19 40  1  0
 20 41  1  0
 21 42  1  0
 23 43  1  0
 23 44  1  0
 23 45  1  0
M  END
>  <ALOGPS_LOGP>  (1) 
4.35

>  <ALOGPS_LOGS>  (1) 
-4.43

>  <ALOGPS_SOLUBILITY>  (1) 
1.22e-02 g/l

>  <DATABASE_ID>  (1) 
DB01615

>  <DATABASE_NAME>  (1) 
drugbank

>  <DRUGBANK_ID>  (1) 
DB01615

>  <DRUG_GROUPS>  (1) 
approved

>  <EXACT_MASS>  (1) 
326.145284026

>  <FORMULA>  (1) 
C19H22N2OS

>  <GENERIC_NAME>  (1) 
Aceprometazine

>  <INCHI_IDENTIFIER>  (1) 
InChI=1S/C19H22N2OS/c1-13(20(3)4)12-21-16-7-5-6-8-18(16)23-19-10-9-15(14(2)22)11-17(19)21/h5-11,13H,12H2,1-4H3

>  <INCHI_KEY>  (1) 
XLOQNFNTQIRSOX-UHFFFAOYSA-N

>  <JCHEM_ACCEPTOR_COUNT>  (1) 
3

>  <JCHEM_AVERAGE_POLARIZABILITY>  (1) 
36.791450890097934

>  <JCHEM_BIOAVAILABILITY>  (1) 
1

>  <JCHEM_DONOR_COUNT>  (1) 
0

>  <JCHEM_FORMAL_CHARGE>  (1) 
0

>  <JCHEM_GHOSE_FILTER>  (1) 
1

>  <JCHEM_IUPAC>  (1) 
1-{10-[2-(dimethylamino)propyl]-10H-phenothiazin-2-yl}ethan-1-one

>  <JCHEM_LOGP>  (1) 
3.845218370333334

>  <JCHEM_MDDR_LIKE_RULE>  (1) 
0

>  <JCHEM_NUMBER_OF_RINGS>  (1) 
3

>  <JCHEM_PHYSIOLOGICAL_CHARGE>  (1) 
1

>  <JCHEM_PKA_STRONGEST_ACIDIC>  (1) 
16.05548143537611

>  <JCHEM_PKA_STRONGEST_BASIC>  (1) 
8.317897519284926

>  <JCHEM_POLAR_SURFACE_AREA>  (1) 
23.550000000000004

>  <JCHEM_REFRACTIVITY>  (1) 
98.90770000000002

>  <JCHEM_ROTATABLE_BOND_COUNT>  (1) 
4

>  <JCHEM_RULE_OF_FIVE>  (1) 
1

>  <JCHEM_TRADITIONAL_IUPAC>  (1) 
aceprometazine

>  <JCHEM_VEBER_RULE>  (1) 
1

>  <MOLECULAR_WEIGHT>  (1) 
326.456

>  <SMILES>  (1) 
CC(CN1C2=CC=CC=C2SC2=C1C=C(C=C2)C(C)=O)N(C)C

>  <SYNONYMS>  (1) 
10-(2-(Dimethylamino)propyl)phenothiazin-2-yl methyl ketone; Aceprometazina; Aceprometazinum; Acepromethazine

$$$$
