1207
     RDKit          2D

 43 44  0  0  0  0  0  0  0  0999 V2000
    6.7925   -2.4198    0.0000 F   0  0  0  0  0  0  0  0  0  0  0  0
    5.6655   -2.1178    0.0000 F   0  0  0  0  0  0  0  0  0  0  0  0
    5.9674   -0.9908    0.0000 F   0  0  0  0  0  0  0  0  0  0  0  0
    6.3799    0.7697    0.0000 O   0  0  0  0  0  0  0  0  0  0  0  0
    2.0930    0.7697    0.0000 O   0  0  0  0  0  0  0  0  0  0  0  0
    2.8075    2.0073    0.0000 O   0  0  0  0  0  0  0  0  0  0  0  0
    7.0944    1.1823    0.0000 N   0  0  0  0  0  0  0  0  0  0  0  0
    9.9524    1.1823    0.0000 N   0  0  0  0  0  0  0  0  0  0  0  0
    4.9509    0.7697    0.0000 C   0  0  0  0  0  0  0  0  0  0  0  0
    4.2365    1.1823    0.0000 C   0  0  0  0  0  0  0  0  0  0  0  0
    5.6655    1.1823    0.0000 C   0  0  0  0  0  0  0  0  0  0  0  0
    3.5220    0.7697    0.0000 C   0  0  0  0  0  0  0  0  0  0  0  0
    7.8089   -0.0553    0.0000 C   0  0  0  0  0  0  0  0  0  0  0  0
    7.8089    0.7697    0.0000 C   0  0  0  0  0  0  0  0  0  0  0  0
    7.0944   -0.4678    0.0000 C   0  0  0  0  0  0  0  0  0  0  0  0
    7.0944   -1.2928    0.0000 C   0  0  0  0  0  0  0  0  0  0  0  0
    8.5234    1.1823    0.0000 C   0  0  0  0  0  0  0  0  0  0  0  0
    8.5234   -0.4678    0.0000 C   0  0  0  0  0  0  0  0  0  0  0  0
    2.8075    1.1823    0.0000 C   0  0  0  0  0  0  0  0  0  0  0  0
    7.8089   -1.7053    0.0000 C   0  0  0  0  0  0  0  0  0  0  0  0
    8.5234   -1.2928    0.0000 C   0  0  0  0  0  0  0  0  0  0  0  0
    6.3799   -1.7053    0.0000 C   0  0  0  0  0  0  0  0  0  0  0  0
    8.5234    2.0073    0.0000 C   0  0  0  0  0  0  0  0  0  0  0  0
    9.2379    0.7697    0.0000 C   0  0  0  0  0  0  0  0  0  0  0  0
    9.2379    2.4198    0.0000 C   0  0  0  0  0  0  0  0  0  0  0  0
    9.9524    2.0073    0.0000 C   0  0  0  0  0  0  0  0  0  0  0  0
    0.0000    0.0000    0.0000 H   0  0  0  0  0  0  0  0  0  0  0  0
    0.0000    0.0000    0.0000 H   0  0  0  0  0  0  0  0  0  0  0  0
    0.0000    0.0000    0.0000 H   0  0  0  0  0  0  0  0  0  0  0  0
    0.0000    0.0000    0.0000 H   0  0  0  0  0  0  0  0  0  0  0  0
    0.0000    0.0000    0.0000 H   0  0  0  0  0  0  0  0  0  0  0  0
    0.0000    0.0000    0.0000 H   0  0  0  0  0  0  0  0  0  0  0  0
    0.0000    0.0000    0.0000 H   0  0  0  0  0  0  0  0  0  0  0  0
    0.0000    0.0000    0.0000 H   0  0  0  0  0  0  0  0  0  0  0  0
    0.0000    0.0000    0.0000 H   0  0  0  0  0  0  0  0  0  0  0  0
    0.0000    0.0000    0.0000 H   0  0  0  0  0  0  0  0  0  0  0  0
    0.0000    0.0000    0.0000 H   0  0  0  0  0  0  0  0  0  0  0  0
    0.0000    0.0000    0.0000 H   0  0  0  0  0  0  0  0  0  0  0  0
    0.0000    0.0000    0.0000 H   0  0  0  0  0  0  0  0  0  0  0  0
    0.0000    0.0000    0.0000 H   0  0  0  0  0  0  0  0  0  0  0  0
    0.0000    0.0000    0.0000 H   0  0  0  0  0  0  0  0  0  0  0  0
    0.0000    0.0000    0.0000 H   0  0  0  0  0  0  0  0  0  0  0  0
    0.0000    0.0000    0.0000 H   0  0  0  0  0  0  0  0  0  0  0  0
  1 22  1  0
  2 22  1  0
  3 22  1  0
  4  7  1  0
  4 11  1  0
  5 19  1  0
  6 19  2  0
  7 14  2  0
  8 24  2  0
  8 26  1  0
  9 10  1  0
  9 11  1  0
 10 12  1  0
 12 19  1  0
 13 14  1  0
 13 15  2  0
 13 18  1  0
 14 17  1  0
 15 16  1  0
 16 20  2  0
 16 22  1  0
 17 23  2  0
 17 24  1  0
 18 21  2  0
 20 21  1  0
 23 25  1  0
 25 26  2  0
  5 27  1  0
  9 28  1  0
  9 29  1  0
 10 30  1  0
 10 31  1  0
 11 32  1  0
 11 33  1  0
 12 34  1  0
 12 35  1  0
 15 36  1  0
 18 37  1  0
 20 38  1  0
 21 39  1  0
 23 40  1  0
 24 41  1  0
 25 42  1  0
 26 43  1  0
M  END
>  <ALOGPS_LOGP>  (1) 
3.24

>  <ALOGPS_LOGS>  (1) 
-4.64

>  <ALOGPS_SOLUBILITY>  (1) 
8.39e-03 g/l

>  <DATABASE_ID>  (1) 
DB01207

>  <DATABASE_NAME>  (1) 
drugbank

>  <DRUGBANK_ID>  (1) 
DB01207

>  <DRUG_GROUPS>  (1) 
approved

>  <EXACT_MASS>  (1) 
366.119127035

>  <FORMULA>  (1) 
C18H17F3N2O3

>  <GENERIC_NAME>  (1) 
Ridogrel

>  <INCHI_IDENTIFIER>  (1) 
InChI=1S/C18H17F3N2O3/c19-18(20,21)15-7-3-5-13(11-15)17(14-6-4-9-22-12-14)23-26-10-2-1-8-16(24)25/h3-7,9,11-12H,1-2,8,10H2,(H,24,25)/b23-17+

>  <INCHI_KEY>  (1) 
GLLPUTYLZIKEGF-HAVVHWLPSA-N

>  <JCHEM_ACCEPTOR_COUNT>  (1) 
5

>  <JCHEM_AVERAGE_POLARIZABILITY>  (1) 
34.94102375669082

>  <JCHEM_BIOAVAILABILITY>  (1) 
1

>  <JCHEM_DONOR_COUNT>  (1) 
1

>  <JCHEM_FORMAL_CHARGE>  (1) 
0

>  <JCHEM_GHOSE_FILTER>  (1) 
1

>  <JCHEM_IUPAC>  (1) 
5-{[(E)-{pyridin-3-yl[3-(trifluoromethyl)phenyl]methylidene}amino]oxy}pentanoic acid

>  <JCHEM_LOGP>  (1) 
3.1325716046939753

>  <JCHEM_MDDR_LIKE_RULE>  (1) 
0

>  <JCHEM_NUMBER_OF_RINGS>  (1) 
2

>  <JCHEM_PHYSIOLOGICAL_CHARGE>  (1) 
-1

>  <JCHEM_PKA_STRONGEST_ACIDIC>  (1) 
3.501608187006648

>  <JCHEM_PKA_STRONGEST_BASIC>  (1) 
4.25638291462859

>  <JCHEM_POLAR_SURFACE_AREA>  (1) 
71.78

>  <JCHEM_REFRACTIVITY>  (1) 
88.8943

>  <JCHEM_ROTATABLE_BOND_COUNT>  (1) 
9

>  <JCHEM_RULE_OF_FIVE>  (1) 
1

>  <JCHEM_TRADITIONAL_IUPAC>  (1) 
ridogrel

>  <JCHEM_VEBER_RULE>  (1) 
0

>  <MOLECULAR_WEIGHT>  (1) 
366.3344

>  <SECONDARY_ACCESSION_NUMBERS>  (1) 
APRD00271

>  <SMILES>  (1) 
OC(=O)CCCCO\N=C(\C1=CN=CC=C1)C1=CC(=CC=C1)C(F)(F)F

>  <SYNONYMS>  (1) 
Ridogrelum

$$$$
