1068
     RDKit          2D

 32 34  0  0  0  0  0  0  0  0999 V2000
    3.6081   -1.2313    0.0000 Cl  0  0  0  0  0  0  0  0  0  0  0  0
    2.3403    2.5929    0.0000 O   0  0  0  0  0  0  0  0  0  0  0  0
    1.8668   -2.5929    0.0000 O   0  0  0  0  0  0  0  0  0  0  0  0
    3.2913   -2.4806    0.0000 O   0  0  0  0  0  0  0  0  0  0  0  0
    2.1839    1.2046    0.0000 N   0  0  0  0  0  0  0  0  0  0  0  0
    4.0375    1.2046    0.0000 N   0  0  0  0  0  0  0  0  0  0  0  0
    2.5467   -2.1255    0.0000 N   0  0  0  0  0  0  0  0  0  0  0  0
    3.1107    0.0423    0.0000 C   0  0  0  0  0  0  0  0  0  0  0  0
    2.3674    0.4003    0.0000 C   0  0  0  0  0  0  0  0  0  0  0  0
    3.8540    0.4003    0.0000 C   0  0  0  0  0  0  0  0  0  0  0  0
    4.4990   -0.1141    0.0000 C   0  0  0  0  0  0  0  0  0  0  0  0
    3.1881   -0.8135    0.0000 C   0  0  0  0  0  0  0  0  0  0  0  0
    1.6500   -0.0728    0.0000 C   0  0  0  0  0  0  0  0  0  0  0  0
    3.5232    1.8496    0.0000 C   0  0  0  0  0  0  0  0  0  0  0  0
    2.4818   -1.3031    0.0000 C   0  0  0  0  0  0  0  0  0  0  0  0
    2.6982    1.8496    0.0000 C   0  0  0  0  0  0  0  0  0  0  0  0
    1.7076   -0.9302    0.0000 C   0  0  0  0  0  0  0  0  0  0  0  0
    4.3760   -0.9299    0.0000 C   0  0  0  0  0  0  0  0  0  0  0  0
    5.2670    0.1873    0.0000 C   0  0  0  0  0  0  0  0  0  0  0  0
    5.0210   -1.4442    0.0000 C   0  0  0  0  0  0  0  0  0  0  0  0
    5.9120   -0.3271    0.0000 C   0  0  0  0  0  0  0  0  0  0  0  0
    5.7890   -1.1429    0.0000 C   0  0  0  0  0  0  0  0  0  0  0  0
    0.0000    0.0000    0.0000 H   0  0  0  0  0  0  0  0  0  0  0  0
    0.0000    0.0000    0.0000 H   0  0  0  0  0  0  0  0  0  0  0  0
    0.0000    0.0000    0.0000 H   0  0  0  0  0  0  0  0  0  0  0  0
    0.0000    0.0000    0.0000 H   0  0  0  0  0  0  0  0  0  0  0  0
    0.0000    0.0000    0.0000 H   0  0  0  0  0  0  0  0  0  0  0  0
    0.0000    0.0000    0.0000 H   0  0  0  0  0  0  0  0  0  0  0  0
    0.0000    0.0000    0.0000 H   0  0  0  0  0  0  0  0  0  0  0  0
    0.0000    0.0000    0.0000 H   0  0  0  0  0  0  0  0  0  0  0  0
    0.0000    0.0000    0.0000 H   0  0  0  0  0  0  0  0  0  0  0  0
    0.0000    0.0000    0.0000 H   0  0  0  0  0  0  0  0  0  0  0  0
  1 18  1  0
  2 16  2  0
  3  7  1  0
  4  7  2  0
  5  9  1  0
  5 16  1  0
  6 10  2  0
  6 14  1  0
  7 15  1  0
  8  9  2  0
  8 10  1  0
  8 12  1  0
  9 13  1  0
 10 11  1  0
 11 18  2  0
 11 19  1  0
 12 15  2  0
 13 17  2  0
 14 16  1  0
 15 17  1  0
 18 20  1  0
 19 21  2  0
 20 22  2  0
 21 22  1  0
  5 23  1  0
 12 24  1  0
 13 25  1  0
 14 26  1  0
 14 27  1  0
 17 28  1  0
 19 29  1  0
 20 30  1  0
 21 31  1  0
 22 32  1  0
M  CHG  2   3  -1   7   1
M  END
>  <ALOGPS_LOGP>  (1) 
2.76

>  <ALOGPS_LOGS>  (1) 
-4.47

>  <ALOGPS_SOLUBILITY>  (1) 
1.06e-02 g/l

>  <DATABASE_ID>  (1) 
DB01068

>  <DATABASE_NAME>  (1) 
drugbank

>  <DRUGBANK_ID>  (1) 
DB01068

>  <DRUG_GROUPS>  (1) 
approved; illicit

>  <EXACT_MASS>  (1) 
315.041068908

>  <FORMULA>  (1) 
C15H10ClN3O3

>  <GENERIC_NAME>  (1) 
Clonazepam

>  <INCHI_IDENTIFIER>  (1) 
InChI=1S/C15H10ClN3O3/c16-12-4-2-1-3-10(12)15-11-7-9(19(21)22)5-6-13(11)18-14(20)8-17-15/h1-7H,8H2,(H,18,20)

>  <INCHI_KEY>  (1) 
DGBIGWXXNGSACT-UHFFFAOYSA-N

>  <INTERNATIONAL_BRANDS>  (1) 
Antelepsin; Iktorivil; Rivotril

>  <JCHEM_ACCEPTOR_COUNT>  (1) 
4

>  <JCHEM_AVERAGE_POLARIZABILITY>  (1) 
29.585434367361763

>  <JCHEM_BIOAVAILABILITY>  (1) 
1

>  <JCHEM_DONOR_COUNT>  (1) 
1

>  <JCHEM_FORMAL_CHARGE>  (1) 
0

>  <JCHEM_GHOSE_FILTER>  (1) 
1

>  <JCHEM_IUPAC>  (1) 
5-(2-chlorophenyl)-7-nitro-2,3-dihydro-1H-1,4-benzodiazepin-2-one

>  <JCHEM_LOGP>  (1) 
3.152004688

>  <JCHEM_MDDR_LIKE_RULE>  (1) 
0

>  <JCHEM_NUMBER_OF_RINGS>  (1) 
3

>  <JCHEM_PHYSIOLOGICAL_CHARGE>  (1) 
0

>  <JCHEM_PKA_STRONGEST_ACIDIC>  (1) 
11.894771930436995

>  <JCHEM_PKA_STRONGEST_BASIC>  (1) 
1.8562715274495132

>  <JCHEM_POLAR_SURFACE_AREA>  (1) 
87.28

>  <JCHEM_REFRACTIVITY>  (1) 
84.02070000000002

>  <JCHEM_ROTATABLE_BOND_COUNT>  (1) 
2

>  <JCHEM_RULE_OF_FIVE>  (1) 
1

>  <JCHEM_TRADITIONAL_IUPAC>  (1) 
clonazepam

>  <JCHEM_VEBER_RULE>  (1) 
0

>  <MOLECULAR_WEIGHT>  (1) 
315.711

>  <PRODUCTS>  (1) 
Accel-clonazepam; Apo-clonazepam - Tab 0.5mg; Apo-clonazepam - Tab 2mg; Clonapam; Clonazepam; Clonazepam-0.5  -  Tab 0.5mg; Clonazepam-2  -  Tab 2mg; Clonazepam-R; Co Clonazepam; Dom-clonazepam - Tab 0.5mg; Dom-clonazepam - Tab 2mg; Dom-clonazepam-R - Tab 0.5mg; Klonopin; Mylan-clonazepam; Nu-clonazepam - Tab 0.5mg; Nu-clonazepam - Tab 2mg; PHL-clonazepam - 0.25mg; PHL-clonazepam - Tab 0.5mg; PHL-clonazepam - Tab 1mg; PHL-clonazepam - Tab 2mg; PHL-clonazepam-R; PMS-clonazepam Tab 0.5mg; PMS-clonazepam Tab 1.0mg; PMS-clonazepam Tab 2mg; PMS-clonazepam- Tab 0.25mg; PMS-clonazepam-R Tab 0.5mg; Pro-clonazepam; Ratio-clonazepam; Riva-clonazepam; Riva-clonazepam 2 mg; Rivotril 0.5tab; Rivotril 2tab; Sandoz Clonazepam; Teva-clonazepam; Zym-clonazepam

>  <SECONDARY_ACCESSION_NUMBERS>  (1) 
APRD00054

>  <SMILES>  (1) 
[O-][N+](=O)C1=CC2=C(NC(=O)CN=C2C2=CC=CC=C2Cl)C=C1

>  <SYNONYMS>  (1) 
Clonazepamum

$$$$
