
     RDKit          2D

 41 43  0  0  1  0  0  0  0  0999 V2000
   18.8939   -5.1899    0.0000 C   0  0  0  0  0  0  0  0  0  0  0  0
   18.1188   -5.1899    0.0000 C   0  0  0  0  0  0  0  0  0  0  0  0
   19.3779   -4.6066    0.0000 C   0  0  0  0  0  0  0  0  0  0  0  0
   15.2537   -4.3585    0.0000 C   0  0  0  0  0  0  0  0  0  0  0  0
   15.2524   -5.1858    0.0000 C   0  0  0  0  0  0  0  0  0  0  0  0
   15.9671   -5.5985    0.0000 C   0  0  0  0  0  0  0  0  0  0  0  0
   15.9653   -3.9460    0.0000 C   0  0  0  0  0  0  0  0  0  0  0  0
   16.6805   -4.3549    0.0000 C   0  0  0  0  0  0  0  0  0  0  0  0
   16.6794   -5.1879    0.0000 C   0  0  0  0  0  0  0  0  0  0  0  0
   17.3961   -5.6029    0.0000 C   0  0  0  0  0  0  0  0  0  0  0  0
   18.1199   -4.3570    0.0000 C   0  0  0  0  0  0  0  0  0  0  0  0
   17.3986   -3.9373    0.0000 C   0  0  0  0  0  0  0  0  0  0  0  0
   18.7430   -4.0563    0.0000 N   0  0  0  0  0  0  0  0  0  0  0  0
   14.5393   -3.9463    0.0000 O   0  0  0  0  0  0  0  0  0  0  0  0
   18.8067   -3.3539    0.0000 C   0  0  0  0  0  0  0  0  0  0  0  0
   17.9819   -3.3539    0.0000 C   0  0  0  0  0  0  0  0  0  0  0  0
   19.3901   -3.9373    0.0000 C   0  0  0  0  0  0  0  0  0  0  0  0
   16.8161   -3.3493    0.0000 C   0  0  0  0  0  0  0  0  0  0  0  0
    0.0000    0.0000    0.0000 H   0  0  0  0  0  0  0  0  0  0  0  0
    0.0000    0.0000    0.0000 H   0  0  0  0  0  0  0  0  0  0  0  0
    0.0000    0.0000    0.0000 H   0  0  0  0  0  0  0  0  0  0  0  0
    0.0000    0.0000    0.0000 H   0  0  0  0  0  0  0  0  0  0  0  0
    0.0000    0.0000    0.0000 H   0  0  0  0  0  0  0  0  0  0  0  0
    0.0000    0.0000    0.0000 H   0  0  0  0  0  0  0  0  0  0  0  0
    0.0000    0.0000    0.0000 H   0  0  0  0  0  0  0  0  0  0  0  0
    0.0000    0.0000    0.0000 H   0  0  0  0  0  0  0  0  0  0  0  0
    0.0000    0.0000    0.0000 H   0  0  0  0  0  0  0  0  0  0  0  0
    0.0000    0.0000    0.0000 H   0  0  0  0  0  0  0  0  0  0  0  0
    0.0000    0.0000    0.0000 H   0  0  0  0  0  0  0  0  0  0  0  0
    0.0000    0.0000    0.0000 H   0  0  0  0  0  0  0  0  0  0  0  0
    0.0000    0.0000    0.0000 H   0  0  0  0  0  0  0  0  0  0  0  0
    0.0000    0.0000    0.0000 H   0  0  0  0  0  0  0  0  0  0  0  0
    0.0000    0.0000    0.0000 H   0  0  0  0  0  0  0  0  0  0  0  0
    0.0000    0.0000    0.0000 H   0  0  0  0  0  0  0  0  0  0  0  0
    0.0000    0.0000    0.0000 H   0  0  0  0  0  0  0  0  0  0  0  0
    0.0000    0.0000    0.0000 H   0  0  0  0  0  0  0  0  0  0  0  0
    0.0000    0.0000    0.0000 H   0  0  0  0  0  0  0  0  0  0  0  0
    0.0000    0.0000    0.0000 H   0  0  0  0  0  0  0  0  0  0  0  0
    0.0000    0.0000    0.0000 H   0  0  0  0  0  0  0  0  0  0  0  0
    0.0000    0.0000    0.0000 H   0  0  0  0  0  0  0  0  0  0  0  0
    0.0000    0.0000    0.0000 H   0  0  0  0  0  0  0  0  0  0  0  0
  2  1  1  0
  1  3  1  0
 10  2  1  0
  2 11  1  0
 11 12  1  0
  8  9  2  0
  5  6  2  0
  6  9  1  0
  4  5  1  0
  8  7  1  0
  7  4  2  0
 11 13  1  6
  8 12  1  0
  9 10  1  0
  4 14  1  0
 16 15  1  0
 12 16  1  0
 15 17  1  0
  3 17  1  0
 12 18  1  6
  1 19  1  0
  1 20  1  0
  2 21  1  6
  3 22  1  0
  3 23  1  0
  5 24  1  0
  6 25  1  0
  7 26  1  0
 10 27  1  0
 10 28  1  0
 11 29  1  0
 13 30  1  0
 13 31  1  0
 14 32  1  0
 15 33  1  0
 15 34  1  0
 16 35  1  0
 16 36  1  0
 17 37  1  0
 17 38  1  0
 18 39  1  0
 18 40  1  0
 18 41  1  0
M  END
>  <ALOGPS_LOGP>  (1) 
3.77

>  <ALOGPS_LOGS>  (1) 
-4.24

>  <ALOGPS_SOLUBILITY>  (1) 
1.40e-02 g/l

>  <DATABASE_ID>  (1) 
DB01209

>  <DATABASE_NAME>  (1) 
drugbank

>  <DRUGBANK_ID>  (1) 
DB01209

>  <DRUG_GROUPS>  (1) 
approved; investigational

>  <EXACT_MASS>  (1) 
245.177964363

>  <FORMULA>  (1) 
C16H23NO

>  <GENERIC_NAME>  (1) 
Dezocine

>  <INCHI_IDENTIFIER>  (1) 
InChI=1S/C16H23NO/c1-16-8-4-2-3-5-12(15(16)17)9-11-6-7-13(18)10-14(11)16/h6-7,10,12,15,18H,2-5,8-9,17H2,1H3/t12-,15-,16+/m0/s1

>  <INCHI_KEY>  (1) 
VTMVHDZWSFQSQP-VBNZEHGJSA-N

>  <JCHEM_ACCEPTOR_COUNT>  (1) 
2

>  <JCHEM_AVERAGE_POLARIZABILITY>  (1) 
28.49255532583148

>  <JCHEM_BIOAVAILABILITY>  (1) 
1

>  <JCHEM_DONOR_COUNT>  (1) 
2

>  <JCHEM_FORMAL_CHARGE>  (1) 
0

>  <JCHEM_GHOSE_FILTER>  (1) 
1

>  <JCHEM_IUPAC>  (1) 
(1R,9S,15S)-15-amino-1-methyltricyclo[7.5.1.0²,⁷]pentadeca-2,4,6-trien-4-ol

>  <JCHEM_LOGP>  (1) 
3.2300964295828267

>  <JCHEM_MDDR_LIKE_RULE>  (1) 
0

>  <JCHEM_NUMBER_OF_RINGS>  (1) 
3

>  <JCHEM_PHYSIOLOGICAL_CHARGE>  (1) 
1

>  <JCHEM_PKA_STRONGEST_ACIDIC>  (1) 
10.4267969916631

>  <JCHEM_PKA_STRONGEST_BASIC>  (1) 
9.665920776075334

>  <JCHEM_POLAR_SURFACE_AREA>  (1) 
46.25

>  <JCHEM_REFRACTIVITY>  (1) 
74.19019999999999

>  <JCHEM_ROTATABLE_BOND_COUNT>  (1) 
0

>  <JCHEM_RULE_OF_FIVE>  (1) 
1

>  <JCHEM_TRADITIONAL_IUPAC>  (1) 
dezocina

>  <JCHEM_VEBER_RULE>  (1) 
0

>  <MOLECULAR_WEIGHT>  (1) 
245.3599

>  <SECONDARY_ACCESSION_NUMBERS>  (1) 
APRD00912

>  <SMILES>  (1) 
[H][C@@]12CC3=CC=C(O)C=C3[C@@](C)(CCCCC1)[C@H]2N

>  <SYNONYMS>  (1) 
Dezocina; Dezocinum

$$$$
