1366
     RDKit          2D

 43 44  0  0  1  0  0  0  0  0999 V2000
    4.5080    0.9529    0.0000 O   0  0  0  0  0  0  0  0  0  0  0  0
    3.7935   -2.7597    0.0000 O   0  0  0  0  0  0  0  0  0  0  0  0
    6.7059   -1.9546    0.0000 O   0  0  0  0  0  0  0  0  0  0  0  0
    3.0791    1.7779    0.0000 N   0  0  0  0  0  0  0  0  0  0  0  0
    5.2455   -1.9633    0.0000 N   0  0  0  0  0  0  0  0  0  0  0  0
    3.0791    0.9529    0.0000 C   0  0  0  0  0  0  0  0  0  0  0  0
    3.7935    0.5404    0.0000 C   0  0  0  0  0  0  0  0  0  0  0  0
    2.3645    0.5404    0.0000 C   0  0  0  0  0  0  0  0  0  0  0  0
    3.7935   -0.2846    0.0000 C   0  0  0  0  0  0  0  0  0  0  0  0
    2.3645    2.1904    0.0000 C   0  0  0  0  0  0  0  0  0  0  0  0
    4.5080   -0.6971    0.0000 C   0  0  0  0  0  0  0  0  0  0  0  0
    1.6500    0.9529    0.0000 C   0  0  0  0  0  0  0  0  0  0  0  0
    3.0791   -0.6971    0.0000 C   0  0  0  0  0  0  0  0  0  0  0  0
    4.5080   -1.5222    0.0000 C   0  0  0  0  0  0  0  0  0  0  0  0
    2.3645    3.0154    0.0000 C   0  0  0  0  0  0  0  0  0  0  0  0
    1.6500    1.7779    0.0000 C   0  0  0  0  0  0  0  0  0  0  0  0
    3.7935   -1.9347    0.0000 C   0  0  0  0  0  0  0  0  0  0  0  0
    5.2455   -0.2560    0.0000 C   0  0  0  0  0  0  0  0  0  0  0  0
    3.0791   -1.5222    0.0000 C   0  0  0  0  0  0  0  0  0  0  0  0
    5.9930   -0.6800    0.0000 C   0  0  0  0  0  0  0  0  0  0  0  0
    5.9930   -1.5393    0.0000 C   0  0  0  0  0  0  0  0  0  0  0  0
    0.0000    0.0000    0.0000 H   0  0  0  0  0  0  0  0  0  0  0  0
    0.0000    0.0000    0.0000 H   0  0  0  0  0  0  0  0  0  0  0  0
    0.0000    0.0000    0.0000 H   0  0  0  0  0  0  0  0  0  0  0  0
    0.0000    0.0000    0.0000 H   0  0  0  0  0  0  0  0  0  0  0  0
    0.0000    0.0000    0.0000 H   0  0  0  0  0  0  0  0  0  0  0  0
    0.0000    0.0000    0.0000 H   0  0  0  0  0  0  0  0  0  0  0  0
    0.0000    0.0000    0.0000 H   0  0  0  0  0  0  0  0  0  0  0  0
    0.0000    0.0000    0.0000 H   0  0  0  0  0  0  0  0  0  0  0  0
    0.0000    0.0000    0.0000 H   0  0  0  0  0  0  0  0  0  0  0  0
    0.0000    0.0000    0.0000 H   0  0  0  0  0  0  0  0  0  0  0  0
    0.0000    0.0000    0.0000 H   0  0  0  0  0  0  0  0  0  0  0  0
    0.0000    0.0000    0.0000 H   0  0  0  0  0  0  0  0  0  0  0  0
    0.0000    0.0000    0.0000 H   0  0  0  0  0  0  0  0  0  0  0  0
    0.0000    0.0000    0.0000 H   0  0  0  0  0  0  0  0  0  0  0  0
    0.0000    0.0000    0.0000 H   0  0  0  0  0  0  0  0  0  0  0  0
    0.0000    0.0000    0.0000 H   0  0  0  0  0  0  0  0  0  0  0  0
    0.0000    0.0000    0.0000 H   0  0  0  0  0  0  0  0  0  0  0  0
    0.0000    0.0000    0.0000 H   0  0  0  0  0  0  0  0  0  0  0  0
    0.0000    0.0000    0.0000 H   0  0  0  0  0  0  0  0  0  0  0  0
    0.0000    0.0000    0.0000 H   0  0  0  0  0  0  0  0  0  0  0  0
    0.0000    0.0000    0.0000 H   0  0  0  0  0  0  0  0  0  0  0  0
    0.0000    0.0000    0.0000 H   0  0  0  0  0  0  0  0  0  0  0  0
  7  1  1  1
  2 17  1  0
  3 21  2  0
  6  4  1  6
  4 10  1  0
  5 14  1  0
  5 21  1  0
  6  7  1  0
  6  8  1  0
  7  9  1  0
  8 12  1  0
  9 11  1  0
  9 13  2  0
 10 15  1  0
 10 16  1  0
 11 14  2  0
 11 18  1  0
 13 19  1  0
 14 17  1  0
 17 19  2  0
 18 20  2  0
 20 21  1  0
  1 22  1  0
  2 23  1  0
  4 24  1  0
  5 25  1  0
  6 26  1  0
  7 27  1  0
  8 28  1  0
  8 29  1  0
 10 30  1  0
 12 31  1  0
 12 32  1  0
 12 33  1  0
 13 34  1  0
 15 35  1  0
 15 36  1  0
 15 37  1  0
 16 38  1  0
 16 39  1  0
 16 40  1  0
 18 41  1  0
 19 42  1  0
 20 43  1  0
M  END
>  <ALOGPS_LOGP>  (1) 
1.28

>  <ALOGPS_LOGS>  (1) 
-2.95

>  <ALOGPS_SOLUBILITY>  (1) 
3.29e-01 g/l

>  <DATABASE_ID>  (1) 
DB01366

>  <DATABASE_NAME>  (1) 
drugbank

>  <DRUGBANK_ID>  (1) 
DB01366

>  <DRUG_GROUPS>  (1) 
approved; investigational

>  <EXACT_MASS>  (1) 
290.16304258

>  <FORMULA>  (1) 
C16H22N2O3

>  <GENERIC_NAME>  (1) 
Procaterol

>  <INCHI_IDENTIFIER>  (1) 
InChI=1S/C16H22N2O3/c1-4-12(17-9(2)3)16(21)11-5-7-13(19)15-10(11)6-8-14(20)18-15/h5-9,12,16-17,19,21H,4H2,1-3H3,(H,18,20)/t12-,16+/m0/s1

>  <INCHI_KEY>  (1) 
FKNXQNWAXFXVNW-BLLLJJGKSA-N

>  <JCHEM_ACCEPTOR_COUNT>  (1) 
4

>  <JCHEM_AVERAGE_POLARIZABILITY>  (1) 
31.690534184310707

>  <JCHEM_BIOAVAILABILITY>  (1) 
1

>  <JCHEM_DONOR_COUNT>  (1) 
4

>  <JCHEM_FORMAL_CHARGE>  (1) 
0

>  <JCHEM_GHOSE_FILTER>  (1) 
1

>  <JCHEM_IUPAC>  (1) 
8-hydroxy-5-[(1R,2S)-1-hydroxy-2-[(propan-2-yl)amino]butyl]-1,2-dihydroquinolin-2-one

>  <JCHEM_LOGP>  (1) 
0.8841294780789967

>  <JCHEM_MDDR_LIKE_RULE>  (1) 
0

>  <JCHEM_NUMBER_OF_RINGS>  (1) 
2

>  <JCHEM_PHYSIOLOGICAL_CHARGE>  (1) 
1

>  <JCHEM_PKA>  (1) 
13.85214184838265

>  <JCHEM_PKA_STRONGEST_ACIDIC>  (1) 
8.519182500786261

>  <JCHEM_PKA_STRONGEST_BASIC>  (1) 
9.88406214069453

>  <JCHEM_POLAR_SURFACE_AREA>  (1) 
81.59

>  <JCHEM_REFRACTIVITY>  (1) 
84.5808

>  <JCHEM_ROTATABLE_BOND_COUNT>  (1) 
5

>  <JCHEM_RULE_OF_FIVE>  (1) 
1

>  <JCHEM_TRADITIONAL_IUPAC>  (1) 
Pro-Air

>  <JCHEM_VEBER_RULE>  (1) 
0

>  <MOLECULAR_WEIGHT>  (1) 
290.3575

>  <PRODUCTS>  (1) 
Pro-air Aerosol 10mcg/aem

>  <SALTS>  (1) 
Procaterol hydrochloride hemihydrate

>  <SMILES>  (1) 
CC[C@H](NC(C)C)[C@H](O)C1=C2C=CC(=O)NC2=C(O)C=C1

$$$$
