
     RDKit          2D

 41 42  0  0  0  0  0  0  0  0999 V2000
    7.2023  -23.5153    0.0000 C   0  0  0  0  0  0  0  0  0  0  0  0
    6.4877  -23.1028    0.0000 C   0  0  0  0  0  0  0  0  0  0  0  0
   12.2036  -20.6279    0.0000 C   0  0  0  0  0  0  0  0  0  0  0  0
    9.3457  -23.1029    0.0000 N   0  0  0  0  0  0  0  0  0  0  0  0
    9.3457  -22.2779    0.0000 N   0  0  0  0  0  0  0  0  0  0  0  0
    7.2023  -24.3404    0.0000 C   0  0  0  0  0  0  0  0  0  0  0  0
   15.0615  -20.6279    0.0000 C   0  0  0  0  0  0  0  0  0  0  0  0
    7.9167  -23.1028    0.0000 C   0  0  0  0  0  0  0  0  0  0  0  0
   11.4891  -21.0404    0.0000 C   0  0  0  0  0  0  0  0  0  0  0  0
   14.3471  -21.0404    0.0000 C   0  0  0  0  0  0  0  0  0  0  0  0
    6.4877  -22.2778    0.0000 O   0  0  0  0  0  0  0  0  0  0  0  0
   12.2036  -19.8028    0.0000 O   0  0  0  0  0  0  0  0  0  0  0  0
    8.6312  -23.5154    0.0000 C   0  0  0  0  0  0  0  0  0  0  0  0
   15.7760  -21.0403    0.0000 O   0  0  0  0  0  0  0  0  0  0  0  0
   12.9181  -21.0404    0.0000 N   0  0  0  0  0  0  0  0  0  0  0  0
    7.9167  -24.7529    0.0000 C   0  0  0  0  0  0  0  0  0  0  0  0
   11.4891  -21.8654    0.0000 C   0  0  0  0  0  0  0  0  0  0  0  0
   10.7747  -20.6279    0.0000 C   0  0  0  0  0  0  0  0  0  0  0  0
   10.0602  -21.8654    0.0000 C   0  0  0  0  0  0  0  0  0  0  0  0
    5.7732  -23.5153    0.0000 O   0  0  0  0  0  0  0  0  0  0  0  0
   13.6325  -20.6279    0.0000 C   0  0  0  0  0  0  0  0  0  0  0  0
   15.0615  -19.8028    0.0000 O   0  0  0  0  0  0  0  0  0  0  0  0
    8.6312  -24.3404    0.0000 C   0  0  0  0  0  0  0  0  0  0  0  0
   10.0602  -21.0404    0.0000 C   0  0  0  0  0  0  0  0  0  0  0  0
   10.7747  -22.2779    0.0000 C   0  0  0  0  0  0  0  0  0  0  0  0
    6.4877  -24.7529    0.0000 O   0  0  0  0  0  0  0  0  0  0  0  0
    0.0000    0.0000    0.0000 H   0  0  0  0  0  0  0  0  0  0  0  0
    0.0000    0.0000    0.0000 H   0  0  0  0  0  0  0  0  0  0  0  0
    0.0000    0.0000    0.0000 H   0  0  0  0  0  0  0  0  0  0  0  0
    0.0000    0.0000    0.0000 H   0  0  0  0  0  0  0  0  0  0  0  0
    0.0000    0.0000    0.0000 H   0  0  0  0  0  0  0  0  0  0  0  0
    0.0000    0.0000    0.0000 H   0  0  0  0  0  0  0  0  0  0  0  0
    0.0000    0.0000    0.0000 H   0  0  0  0  0  0  0  0  0  0  0  0
    0.0000    0.0000    0.0000 H   0  0  0  0  0  0  0  0  0  0  0  0
    0.0000    0.0000    0.0000 H   0  0  0  0  0  0  0  0  0  0  0  0
    0.0000    0.0000    0.0000 H   0  0  0  0  0  0  0  0  0  0  0  0
    0.0000    0.0000    0.0000 H   0  0  0  0  0  0  0  0  0  0  0  0
    0.0000    0.0000    0.0000 H   0  0  0  0  0  0  0  0  0  0  0  0
    0.0000    0.0000    0.0000 H   0  0  0  0  0  0  0  0  0  0  0  0
    0.0000    0.0000    0.0000 H   0  0  0  0  0  0  0  0  0  0  0  0
    0.0000    0.0000    0.0000 H   0  0  0  0  0  0  0  0  0  0  0  0
  2  1  1  0
  3  9  1  0
  4 13  1  0
  5  4  2  0
  6  1  2  0
  7 10  1  0
  8  1  1  0
  9 17  2  0
 10 21  1  0
 11  2  2  0
 12  3  2  0
 13  8  2  0
 14  7  1  0
 15  3  1  0
 16  6  1  0
 17 25  1  0
 18 24  2  0
 19  5  1  0
 20  2  1  0
 21 15  1  0
 22  7  2  0
 23 13  1  0
 24 19  1  0
 25 19  2  0
 26  6  1  0
 16 23  2  0
 18  9  1  0
  8 27  1  0
 10 28  1  0
 10 29  1  0
 14 30  1  0
 15 31  1  0
 16 32  1  0
 17 33  1  0
 18 34  1  0
 20 35  1  0
 21 36  1  0
 21 37  1  0
 23 38  1  0
 24 39  1  0
 25 40  1  0
 26 41  1  0
M  END
>  <ALOGPS_LOGP>  (1) 
3.37

>  <ALOGPS_LOGS>  (1) 
-3.76

>  <ALOGPS_SOLUBILITY>  (1) 
6.21e-02 g/l

>  <DATABASE_ID>  (1) 
DB01014

>  <DATABASE_NAME>  (1) 
drugbank

>  <DRUGBANK_ID>  (1) 
DB01014

>  <DRUG_GROUPS>  (1) 
approved; investigational

>  <EXACT_MASS>  (1) 
357.096085227

>  <FORMULA>  (1) 
C17H15N3O6

>  <GENERIC_NAME>  (1) 
Balsalazide

>  <INCHI_IDENTIFIER>  (1) 
InChI=1S/C17H15N3O6/c21-14-6-5-12(9-13(14)17(25)26)20-19-11-3-1-10(2-4-11)16(24)18-8-7-15(22)23/h1-6,9,21H,7-8H2,(H,18,24)(H,22,23)(H,25,26)/b20-19+

>  <INCHI_KEY>  (1) 
IPOKCKJONYRRHP-FMQUCBEESA-N

>  <INTERNATIONAL_BRANDS>  (1) 
Colazide

>  <JCHEM_ACCEPTOR_COUNT>  (1) 
8

>  <JCHEM_AVERAGE_POLARIZABILITY>  (1) 
35.98486676626132

>  <JCHEM_BIOAVAILABILITY>  (1) 
1

>  <JCHEM_DONOR_COUNT>  (1) 
4

>  <JCHEM_FORMAL_CHARGE>  (1) 
0

>  <JCHEM_GHOSE_FILTER>  (1) 
1

>  <JCHEM_IUPAC>  (1) 
5-[(E)-2-{4-[(2-carboxyethyl)carbamoyl]phenyl}diazen-1-yl]-2-hydroxybenzoic acid

>  <JCHEM_LOGP>  (1) 
3.172469480333333

>  <JCHEM_MDDR_LIKE_RULE>  (1) 
0

>  <JCHEM_NUMBER_OF_RINGS>  (1) 
2

>  <JCHEM_PHYSIOLOGICAL_CHARGE>  (1) 
-2

>  <JCHEM_PKA>  (1) 
3.7323069558352695

>  <JCHEM_PKA_STRONGEST_ACIDIC>  (1) 
3.0649272543262662

>  <JCHEM_PKA_STRONGEST_BASIC>  (1) 
-0.03339614995957785

>  <JCHEM_POLAR_SURFACE_AREA>  (1) 
148.65

>  <JCHEM_REFRACTIVITY>  (1) 
94.37320000000001

>  <JCHEM_ROTATABLE_BOND_COUNT>  (1) 
7

>  <JCHEM_RULE_OF_FIVE>  (1) 
1

>  <JCHEM_TRADITIONAL_IUPAC>  (1) 
balsalazide

>  <JCHEM_VEBER_RULE>  (1) 
0

>  <MOLECULAR_WEIGHT>  (1) 
357.3175

>  <PRODUCTS>  (1) 
Balsalazide Disodium; Colazal; Giazo

>  <SALTS>  (1) 
Balsalazide disodium

>  <SECONDARY_ACCESSION_NUMBERS>  (1) 
APRD00141

>  <SMILES>  (1) 
OC(=O)CCNC(=O)C1=CC=C(C=C1)\N=N\C1=CC=C(O)C(=C1)C(O)=O

>  <SYNONYMS>  (1) 
Balsalazida; Balsalazido; Balsalazidum

$$$$
