1016
     RDKit          2D

 61 63  0  0  0  0  0  0  0  0999 V2000
    5.2224   -5.5689    0.0000 Cl  0  0  0  0  0  0  0  0  0  0  0  0
    5.2224    1.8563    0.0000 S   0  0  0  0  0  0  0  0  0  0  0  0
    6.6515    2.6813    0.0000 O   0  0  0  0  0  0  0  0  0  0  0  0
    4.3974    1.8563    0.0000 O   0  0  0  0  0  0  0  0  0  0  0  0
    6.0475    1.8563    0.0000 O   0  0  0  0  0  0  0  0  0  0  0  0
    3.0791   -2.6813    0.0000 O   0  0  0  0  0  0  0  0  0  0  0  0
    2.3645   -3.9188    0.0000 O   0  0  0  0  0  0  0  0  0  0  0  0
    5.9370    3.9188    0.0000 N   0  0  0  0  0  0  0  0  0  0  0  0
    5.2224    2.6813    0.0000 N   0  0  0  0  0  0  0  0  0  0  0  0
    4.5080   -2.6813    0.0000 N   0  0  0  0  0  0  0  0  0  0  0  0
    6.6515    4.3313    0.0000 C   0  0  0  0  0  0  0  0  0  0  0  0
    7.3659    3.9188    0.0000 C   0  0  0  0  0  0  0  0  0  0  0  0
    6.6515    5.1564    0.0000 C   0  0  0  0  0  0  0  0  0  0  0  0
    8.0804    4.3313    0.0000 C   0  0  0  0  0  0  0  0  0  0  0  0
    7.3659    5.5689    0.0000 C   0  0  0  0  0  0  0  0  0  0  0  0
    8.0804    5.1564    0.0000 C   0  0  0  0  0  0  0  0  0  0  0  0
    5.9370    3.0938    0.0000 C   0  0  0  0  0  0  0  0  0  0  0  0
    5.2224    1.0313    0.0000 C   0  0  0  0  0  0  0  0  0  0  0  0
    5.2224   -0.6188    0.0000 C   0  0  0  0  0  0  0  0  0  0  0  0
    5.2224   -1.4438    0.0000 C   0  0  0  0  0  0  0  0  0  0  0  0
    4.5080    0.6188    0.0000 C   0  0  0  0  0  0  0  0  0  0  0  0
    5.9370    0.6188    0.0000 C   0  0  0  0  0  0  0  0  0  0  0  0
    4.5080   -0.2063    0.0000 C   0  0  0  0  0  0  0  0  0  0  0  0
    5.9370   -0.2063    0.0000 C   0  0  0  0  0  0  0  0  0  0  0  0
    4.5080   -1.8563    0.0000 C   0  0  0  0  0  0  0  0  0  0  0  0
    3.7935   -3.0938    0.0000 C   0  0  0  0  0  0  0  0  0  0  0  0
    3.7935   -3.9188    0.0000 C   0  0  0  0  0  0  0  0  0  0  0  0
    3.0791   -4.3313    0.0000 C   0  0  0  0  0  0  0  0  0  0  0  0
    4.5080   -4.3313    0.0000 C   0  0  0  0  0  0  0  0  0  0  0  0
    3.0791   -5.1564    0.0000 C   0  0  0  0  0  0  0  0  0  0  0  0
    4.5080   -5.1564    0.0000 C   0  0  0  0  0  0  0  0  0  0  0  0
    3.7935   -5.5689    0.0000 C   0  0  0  0  0  0  0  0  0  0  0  0
    1.6500   -4.3313    0.0000 C   0  0  0  0  0  0  0  0  0  0  0  0
    0.0000    0.0000    0.0000 H   0  0  0  0  0  0  0  0  0  0  0  0
    0.0000    0.0000    0.0000 H   0  0  0  0  0  0  0  0  0  0  0  0
    0.0000    0.0000    0.0000 H   0  0  0  0  0  0  0  0  0  0  0  0
    0.0000    0.0000    0.0000 H   0  0  0  0  0  0  0  0  0  0  0  0
    0.0000    0.0000    0.0000 H   0  0  0  0  0  0  0  0  0  0  0  0
    0.0000    0.0000    0.0000 H   0  0  0  0  0  0  0  0  0  0  0  0
    0.0000    0.0000    0.0000 H   0  0  0  0  0  0  0  0  0  0  0  0
    0.0000    0.0000    0.0000 H   0  0  0  0  0  0  0  0  0  0  0  0
    0.0000    0.0000    0.0000 H   0  0  0  0  0  0  0  0  0  0  0  0
    0.0000    0.0000    0.0000 H   0  0  0  0  0  0  0  0  0  0  0  0
    0.0000    0.0000    0.0000 H   0  0  0  0  0  0  0  0  0  0  0  0
    0.0000    0.0000    0.0000 H   0  0  0  0  0  0  0  0  0  0  0  0
    0.0000    0.0000    0.0000 H   0  0  0  0  0  0  0  0  0  0  0  0
    0.0000    0.0000    0.0000 H   0  0  0  0  0  0  0  0  0  0  0  0
    0.0000    0.0000    0.0000 H   0  0  0  0  0  0  0  0  0  0  0  0
    0.0000    0.0000    0.0000 H   0  0  0  0  0  0  0  0  0  0  0  0
    0.0000    0.0000    0.0000 H   0  0  0  0  0  0  0  0  0  0  0  0
    0.0000    0.0000    0.0000 H   0  0  0  0  0  0  0  0  0  0  0  0
    0.0000    0.0000    0.0000 H   0  0  0  0  0  0  0  0  0  0  0  0
    0.0000    0.0000    0.0000 H   0  0  0  0  0  0  0  0  0  0  0  0
    0.0000    0.0000    0.0000 H   0  0  0  0  0  0  0  0  0  0  0  0
    0.0000    0.0000    0.0000 H   0  0  0  0  0  0  0  0  0  0  0  0
    0.0000    0.0000    0.0000 H   0  0  0  0  0  0  0  0  0  0  0  0
    0.0000    0.0000    0.0000 H   0  0  0  0  0  0  0  0  0  0  0  0
    0.0000    0.0000    0.0000 H   0  0  0  0  0  0  0  0  0  0  0  0
    0.0000    0.0000    0.0000 H   0  0  0  0  0  0  0  0  0  0  0  0
    0.0000    0.0000    0.0000 H   0  0  0  0  0  0  0  0  0  0  0  0
    0.0000    0.0000    0.0000 H   0  0  0  0  0  0  0  0  0  0  0  0
  1 31  1  0
  2  4  2  0
  2  5  2  0
  2  9  1  0
  2 18  1  0
  3 17  2  0
  6 26  2  0
  7 28  1  0
  7 33  1  0
  8 11  1  0
  8 17  1  0
  9 17  1  0
 10 25  1  0
 10 26  1  0
 11 12  1  0
 11 13  1  0
 12 14  1  0
 13 15  1  0
 14 16  1  0
 15 16  1  0
 18 21  2  0
 18 22  1  0
 19 20  1  0
 19 23  2  0
 19 24  1  0
 20 25  1  0
 21 23  1  0
 22 24  2  0
 26 27  1  0
 27 28  2  0
 27 29  1  0
 28 30  1  0
 29 31  2  0
 30 32  2  0
 31 32  1  0
  8 34  1  0
  9 35  1  0
 10 36  1  0
 11 37  1  0
 12 38  1  0
 12 39  1  0
 13 40  1  0
 13 41  1  0
 14 42  1  0
 14 43  1  0
 15 44  1  0
 15 45  1  0
 16 46  1  0
 16 47  1  0
 20 48  1  0
 20 49  1  0
 21 50  1  0
 22 51  1  0
 23 52  1  0
 24 53  1  0
 25 54  1  0
 25 55  1  0
 29 56  1  0
 30 57  1  0
 32 58  1  0
 33 59  1  0
 33 60  1  0
 33 61  1  0
M  END
>  <ALOGPS_LOGP>  (1) 
3.78

>  <ALOGPS_LOGS>  (1) 
-5.38

>  <ALOGPS_SOLUBILITY>  (1) 
2.06e-03 g/l

>  <DATABASE_ID>  (1) 
DB01016

>  <DATABASE_NAME>  (1) 
drugbank

>  <DRUGBANK_ID>  (1) 
DB01016

>  <DRUG_GROUPS>  (1) 
approved

>  <EXACT_MASS>  (1) 
493.143819418

>  <FORMULA>  (1) 
C23H28ClN3O5S

>  <GENERIC_NAME>  (1) 
Glyburide

>  <INCHI_IDENTIFIER>  (1) 
InChI=1S/C23H28ClN3O5S/c1-32-21-12-9-17(24)15-20(21)22(28)25-14-13-16-7-10-19(11-8-16)33(30,31)27-23(29)26-18-5-3-2-4-6-18/h7-12,15,18H,2-6,13-14H2,1H3,(H,25,28)(H2,26,27,29)

>  <INCHI_KEY>  (1) 
ZNNLBTZKUZBEKO-UHFFFAOYSA-N

>  <INTERNATIONAL_BRANDS>  (1) 
Daonil; Delmide; Micronase; Novo-Glyburide; Semi-Daonil

>  <JCHEM_ACCEPTOR_COUNT>  (1) 
5

>  <JCHEM_AVERAGE_POLARIZABILITY>  (1) 
51.75337429229601

>  <JCHEM_BIOAVAILABILITY>  (1) 
1

>  <JCHEM_DONOR_COUNT>  (1) 
3

>  <JCHEM_FORMAL_CHARGE>  (1) 
0

>  <JCHEM_GHOSE_FILTER>  (1) 
0

>  <JCHEM_IUPAC>  (1) 
5-chloro-N-[2-(4-{[(cyclohexylcarbamoyl)amino]sulfonyl}phenyl)ethyl]-2-methoxybenzamide

>  <JCHEM_LOGP>  (1) 
3.7911100480000006

>  <JCHEM_MDDR_LIKE_RULE>  (1) 
1

>  <JCHEM_NUMBER_OF_RINGS>  (1) 
3

>  <JCHEM_PHYSIOLOGICAL_CHARGE>  (1) 
-1

>  <JCHEM_PKA>  (1) 
13.717745987330456

>  <JCHEM_PKA_STRONGEST_ACIDIC>  (1) 
4.320179892066342

>  <JCHEM_PKA_STRONGEST_BASIC>  (1) 
-1.1594498864691096

>  <JCHEM_POLAR_SURFACE_AREA>  (1) 
113.60000000000001

>  <JCHEM_REFRACTIVITY>  (1) 
126.9801

>  <JCHEM_ROTATABLE_BOND_COUNT>  (1) 
7

>  <JCHEM_RULE_OF_FIVE>  (1) 
1

>  <JCHEM_TRADITIONAL_IUPAC>  (1) 
glyburide

>  <JCHEM_VEBER_RULE>  (1) 
0

>  <MOLECULAR_WEIGHT>  (1) 
494.004

>  <PRODUCTS>  (1) 
Apo Glyburide Tab 2.5mg; Apo Glyburide Tab 5mg; Ava-glyburide; DiaBeta; Diabeta 5mg; Diabeta Tab 2.5mg; Diabeta Tab 5mg; Diabeta Tablets 2.5mg; Dom-glyburide; Euglucon; Glucovance; GlyBURIDE; Glyburide; Glyburide (micronized) and Metformin Hydrochloride; Glyburide Tablets 2.5mg; Glyburide Tablets 5mg; Glyburide and Metformin; Glyburide and Metformin Hydrochloride; Glyburide-2.5 Tab 2.5mg; Glyburide-5 Tab 5mg; Glyburide-Metformin Hydrochloride; Glynase; Med Glybe Tab 2.5mg; Med Glybe Tab 5mg; Mylan-glybe; Ntp-glyburide; Nu-glyburide Tab 2.5mg; Nu-glyburide Tab 5mg; PMS-glyburide; Penta-glyburide - 2.5mg; Penta-glyburide - 5mg; Pro-glyburide; Ratio-glyburide; Riva-glyburide; Sandoz Glyburide; Teva-glyburide; glyBURIDE

>  <SECONDARY_ACCESSION_NUMBERS>  (1) 
APRD00233

>  <SMILES>  (1) 
COC1=C(C=C(Cl)C=C1)C(=O)NCCC1=CC=C(C=C1)S(=O)(=O)NC(=O)NC1CCCCC1

>  <SYNONYMS>  (1) 
1-((p-(2-(5-chloro-o-anisamido)ethyl)phenyl)sulfonyl)-3-cyclohexylurea; 1-(p-(2-(5-chloro-2-methoxybenzamido)ethyl)benzenesulfonyl)-3-cyclohexylurea; 5-chloro-N-(2-(4-((((cyclohexylamino)carbonyl)amino)sulfonyl)phenyl)ethyl)-2-methoxybenzamide; Glibenclamida; Glibenclamide; Glibenclamidum

$$$$
