1289
     RDKit          2D

 58 60  0  0  0  0  0  0  0  0999 V2000
    8.0632    0.4174    0.0000 S   0  0  0  0  0  0  0  0  0  0  0  0
    8.0632    2.0674    0.0000 O   0  0  0  0  0  0  0  0  0  0  0  0
    7.6507    1.1318    0.0000 O   0  0  0  0  0  0  0  0  0  0  0  0
    8.4757   -0.2971    0.0000 O   0  0  0  0  0  0  0  0  0  0  0  0
    5.2052   -3.7077    0.0000 O   0  0  0  0  0  0  0  0  0  0  0  0
    2.8830   -4.6997    0.0000 O   0  0  0  0  0  0  0  0  0  0  0  0
    9.4922    2.8924    0.0000 N   0  0  0  0  0  0  0  0  0  0  0  0
    9.4922    2.0674    0.0000 N   0  0  0  0  0  0  0  0  0  0  0  0
    8.7777    0.8299    0.0000 N   0  0  0  0  0  0  0  0  0  0  0  0
    4.4907   -2.4702    0.0000 N   0  0  0  0  0  0  0  0  0  0  0  0
    3.6901   -4.5282    0.0000 N   0  0  0  0  0  0  0  0  0  0  0  0
    9.9047    4.6997    0.0000 C   0  0  0  0  0  0  0  0  0  0  0  0
    9.0797    4.6997    0.0000 C   0  0  0  0  0  0  0  0  0  0  0  0
   10.4191    4.0547    0.0000 C   0  0  0  0  0  0  0  0  0  0  0  0
    8.5653    4.0547    0.0000 C   0  0  0  0  0  0  0  0  0  0  0  0
   10.2355    3.2504    0.0000 C   0  0  0  0  0  0  0  0  0  0  0  0
    8.7488    3.2504    0.0000 C   0  0  0  0  0  0  0  0  0  0  0  0
    8.7777    1.6549    0.0000 C   0  0  0  0  0  0  0  0  0  0  0  0
    7.3487    0.0049    0.0000 C   0  0  0  0  0  0  0  0  0  0  0  0
    5.9198   -0.8202    0.0000 C   0  0  0  0  0  0  0  0  0  0  0  0
    5.2052   -1.2327    0.0000 C   0  0  0  0  0  0  0  0  0  0  0  0
    6.6342    0.4174    0.0000 C   0  0  0  0  0  0  0  0  0  0  0  0
    7.3487   -0.8202    0.0000 C   0  0  0  0  0  0  0  0  0  0  0  0
    5.2052   -2.0577    0.0000 C   0  0  0  0  0  0  0  0  0  0  0  0
    5.9198    0.0049    0.0000 C   0  0  0  0  0  0  0  0  0  0  0  0
    6.6342   -1.2327    0.0000 C   0  0  0  0  0  0  0  0  0  0  0  0
    4.4907   -3.2952    0.0000 C   0  0  0  0  0  0  0  0  0  0  0  0
    3.7763   -3.7077    0.0000 C   0  0  0  0  0  0  0  0  0  0  0  0
    3.0226   -3.3722    0.0000 C   0  0  0  0  0  0  0  0  0  0  0  0
    2.4705   -3.9853    0.0000 C   0  0  0  0  0  0  0  0  0  0  0  0
    1.6500   -3.8990    0.0000 C   0  0  0  0  0  0  0  0  0  0  0  0
    0.0000    0.0000    0.0000 H   0  0  0  0  0  0  0  0  0  0  0  0
    0.0000    0.0000    0.0000 H   0  0  0  0  0  0  0  0  0  0  0  0
    0.0000    0.0000    0.0000 H   0  0  0  0  0  0  0  0  0  0  0  0
    0.0000    0.0000    0.0000 H   0  0  0  0  0  0  0  0  0  0  0  0
    0.0000    0.0000    0.0000 H   0  0  0  0  0  0  0  0  0  0  0  0
    0.0000    0.0000    0.0000 H   0  0  0  0  0  0  0  0  0  0  0  0
    0.0000    0.0000    0.0000 H   0  0  0  0  0  0  0  0  0  0  0  0
    0.0000    0.0000    0.0000 H   0  0  0  0  0  0  0  0  0  0  0  0
    0.0000    0.0000    0.0000 H   0  0  0  0  0  0  0  0  0  0  0  0
    0.0000    0.0000    0.0000 H   0  0  0  0  0  0  0  0  0  0  0  0
    0.0000    0.0000    0.0000 H   0  0  0  0  0  0  0  0  0  0  0  0
    0.0000    0.0000    0.0000 H   0  0  0  0  0  0  0  0  0  0  0  0
    0.0000    0.0000    0.0000 H   0  0  0  0  0  0  0  0  0  0  0  0
    0.0000    0.0000    0.0000 H   0  0  0  0  0  0  0  0  0  0  0  0
    0.0000    0.0000    0.0000 H   0  0  0  0  0  0  0  0  0  0  0  0
    0.0000    0.0000    0.0000 H   0  0  0  0  0  0  0  0  0  0  0  0
    0.0000    0.0000    0.0000 H   0  0  0  0  0  0  0  0  0  0  0  0
    0.0000    0.0000    0.0000 H   0  0  0  0  0  0  0  0  0  0  0  0
    0.0000    0.0000    0.0000 H   0  0  0  0  0  0  0  0  0  0  0  0
    0.0000    0.0000    0.0000 H   0  0  0  0  0  0  0  0  0  0  0  0
    0.0000    0.0000    0.0000 H   0  0  0  0  0  0  0  0  0  0  0  0
    0.0000    0.0000    0.0000 H   0  0  0  0  0  0  0  0  0  0  0  0
    0.0000    0.0000    0.0000 H   0  0  0  0  0  0  0  0  0  0  0  0
    0.0000    0.0000    0.0000 H   0  0  0  0  0  0  0  0  0  0  0  0
    0.0000    0.0000    0.0000 H   0  0  0  0  0  0  0  0  0  0  0  0
    0.0000    0.0000    0.0000 H   0  0  0  0  0  0  0  0  0  0  0  0
    0.0000    0.0000    0.0000 H   0  0  0  0  0  0  0  0  0  0  0  0
  1  3  2  0
  1  4  2  0
  1  9  1  0
  1 19  1  0
  2 18  2  0
  5 27  2  0
  6 11  1  0
  6 30  1  0
  7  8  1  0
  7 16  1  0
  7 17  1  0
  8 18  1  0
  9 18  1  0
 10 24  1  0
 10 27  1  0
 11 28  2  0
 12 13  1  0
 12 14  1  0
 13 15  1  0
 14 16  1  0
 15 17  1  0
 19 22  2  0
 19 23  1  0
 20 21  1  0
 20 25  2  0
 20 26  1  0
 21 24  1  0
 22 25  1  0
 23 26  2  0
 27 28  1  0
 28 29  1  0
 29 30  2  0
 30 31  1  0
  8 32  1  0
  9 33  1  0
 10 34  1  0
 12 35  1  0
 12 36  1  0
 13 37  1  0
 13 38  1  0
 14 39  1  0
 14 40  1  0
 15 41  1  0
 15 42  1  0
 16 43  1  0
 16 44  1  0
 17 45  1  0
 17 46  1  0
 21 47  1  0
 21 48  1  0
 22 49  1  0
 23 50  1  0
 24 51  1  0
 24 52  1  0
 25 53  1  0
 26 54  1  0
 29 55  1  0
 31 56  1  0
 31 57  1  0
 31 58  1  0
M  END
>  <ALOGPS_LOGP>  (1) 
1.57

>  <ALOGPS_LOGS>  (1) 
-3.64

>  <ALOGPS_SOLUBILITY>  (1) 
1.03e-01 g/l

>  <DATABASE_ID>  (1) 
DB01289

>  <DATABASE_NAME>  (1) 
drugbank

>  <DRUGBANK_ID>  (1) 
DB01289

>  <DRUG_GROUPS>  (1) 
approved; investigational

>  <EXACT_MASS>  (1) 
449.173289689

>  <FORMULA>  (1) 
C20H27N5O5S

>  <GENERIC_NAME>  (1) 
Glisoxepide

>  <INCHI_IDENTIFIER>  (1) 
InChI=1S/C20H27N5O5S/c1-15-14-18(23-30-15)19(26)21-11-10-16-6-8-17(9-7-16)31(28,29)24-20(27)22-25-12-4-2-3-5-13-25/h6-9,14H,2-5,10-13H2,1H3,(H,21,26)(H2,22,24,27)

>  <INCHI_KEY>  (1) 
ZKUDBRCEOBOWLF-UHFFFAOYSA-N

>  <INTERNATIONAL_BRANDS>  (1) 
Glucoben; Glysepin; Pro-Diaban

>  <JCHEM_ACCEPTOR_COUNT>  (1) 
6

>  <JCHEM_AVERAGE_POLARIZABILITY>  (1) 
46.83471584924647

>  <JCHEM_BIOAVAILABILITY>  (1) 
1

>  <JCHEM_DONOR_COUNT>  (1) 
3

>  <JCHEM_FORMAL_CHARGE>  (1) 
0

>  <JCHEM_GHOSE_FILTER>  (1) 
1

>  <JCHEM_IUPAC>  (1) 
N-{2-[4-({[(azepan-1-yl)carbamoyl]amino}sulfonyl)phenyl]ethyl}-5-methyl-1,2-oxazole-3-carboxamide

>  <JCHEM_LOGP>  (1) 
1.4359763420000002

>  <JCHEM_MDDR_LIKE_RULE>  (1) 
1

>  <JCHEM_NUMBER_OF_RINGS>  (1) 
3

>  <JCHEM_PHYSIOLOGICAL_CHARGE>  (1) 
-1

>  <JCHEM_PKA>  (1) 
12.422062788921771

>  <JCHEM_PKA_STRONGEST_ACIDIC>  (1) 
4.06666730351641

>  <JCHEM_PKA_STRONGEST_BASIC>  (1) 
1.593363977634887

>  <JCHEM_POLAR_SURFACE_AREA>  (1) 
133.64

>  <JCHEM_REFRACTIVITY>  (1) 
115.85730000000001

>  <JCHEM_ROTATABLE_BOND_COUNT>  (1) 
6

>  <JCHEM_RULE_OF_FIVE>  (1) 
1

>  <JCHEM_TRADITIONAL_IUPAC>  (1) 
glisoxepide

>  <JCHEM_VEBER_RULE>  (1) 
0

>  <MOLECULAR_WEIGHT>  (1) 
449.524

>  <SMILES>  (1) 
CC1=CC(=NO1)C(=O)NCCC1=CC=C(C=C1)S(=O)(=O)NC(=O)NN1CCCCCC1

$$$$
