
     RDKit          2D

 43 46  0  0  1  0  0  0  0  0999 V2000
   15.7157  -11.8006    0.0000 C   0  0  0  0  0  0  0  0  0  0  0  0
   15.7157  -12.6255    0.0000 N   0  0  0  0  0  0  0  0  0  0  0  0
   16.4303  -13.0379    0.0000 C   0  0  0  0  0  0  0  0  0  0  0  0
   17.1446  -12.6255    0.0000 C   0  0  0  0  0  0  0  0  0  0  0  0
   17.1446  -11.8006    0.0000 C   0  0  0  0  0  0  0  0  0  0  0  0
   16.4303  -11.3881    0.0000 S   0  0  0  0  0  0  0  0  0  0  0  0
   14.8907  -11.8006    0.0000 C   0  0  0  0  0  0  0  0  0  0  0  0
   14.8907  -12.6255    0.0000 C   0  0  0  0  0  0  0  0  0  0  0  0
   14.1764  -11.3881    0.0000 N   0  0  0  0  0  0  0  0  0  0  0  0
   13.4618  -11.8006    0.0000 C   0  0  0  0  0  0  0  0  0  0  0  0
   13.4618  -12.6255    0.0000 O   0  0  0  0  0  0  0  0  0  0  0  0
   14.1764  -13.0379    0.0000 O   0  0  0  0  0  0  0  0  0  0  0  0
   12.7474  -11.3881    0.0000 C   0  0  0  0  0  0  0  0  0  0  0  0
   17.8700  -13.0445    0.0000 C   0  0  0  0  0  0  0  0  0  0  0  0
   16.4303  -13.8628    0.0000 C   0  0  0  0  0  0  0  0  0  0  0  0
   15.7058  -14.2812    0.0000 O   0  0  0  0  0  0  0  0  0  0  0  0
   17.1346  -14.2696    0.0000 O   0  0  0  0  0  0  0  0  0  0  0  0
   12.0215  -11.8074    0.0000 N   0  0  0  0  0  0  0  0  0  0  0  0
   18.5874  -12.6305    0.0000 S   0  0  0  0  0  0  0  0  0  0  0  0
   19.3017  -13.0431    0.0000 C   0  0  0  0  0  0  0  0  0  0  0  0
   19.5594  -13.8259    0.0000 N   0  0  0  0  0  0  0  0  0  0  0  0
   20.3849  -13.8252    0.0000 N   0  0  0  0  0  0  0  0  0  0  0  0
   20.6393  -13.0399    0.0000 C   0  0  0  0  0  0  0  0  0  0  0  0
   19.9710  -12.5552    0.0000 S   0  0  0  0  0  0  0  0  0  0  0  0
   21.4642  -13.0213    0.0000 C   0  0  0  0  0  0  0  0  0  0  0  0
   11.3408  -11.3282    0.0000 C   0  0  0  0  0  0  0  0  0  0  0  0
   10.6719  -11.8275    0.0000 N   0  0  0  0  0  0  0  0  0  0  0  0
   10.9401  -12.6180    0.0000 N   0  0  0  0  0  0  0  0  0  0  0  0
   11.7748  -12.6073    0.0000 N   0  0  0  0  0  0  0  0  0  0  0  0
    0.0000    0.0000    0.0000 H   0  0  0  0  0  0  0  0  0  0  0  0
    0.0000    0.0000    0.0000 H   0  0  0  0  0  0  0  0  0  0  0  0
    0.0000    0.0000    0.0000 H   0  0  0  0  0  0  0  0  0  0  0  0
    0.0000    0.0000    0.0000 H   0  0  0  0  0  0  0  0  0  0  0  0
    0.0000    0.0000    0.0000 H   0  0  0  0  0  0  0  0  0  0  0  0
    0.0000    0.0000    0.0000 H   0  0  0  0  0  0  0  0  0  0  0  0
    0.0000    0.0000    0.0000 H   0  0  0  0  0  0  0  0  0  0  0  0
    0.0000    0.0000    0.0000 H   0  0  0  0  0  0  0  0  0  0  0  0
    0.0000    0.0000    0.0000 H   0  0  0  0  0  0  0  0  0  0  0  0
    0.0000    0.0000    0.0000 H   0  0  0  0  0  0  0  0  0  0  0  0
    0.0000    0.0000    0.0000 H   0  0  0  0  0  0  0  0  0  0  0  0
    0.0000    0.0000    0.0000 H   0  0  0  0  0  0  0  0  0  0  0  0
    0.0000    0.0000    0.0000 H   0  0  0  0  0  0  0  0  0  0  0  0
    0.0000    0.0000    0.0000 H   0  0  0  0  0  0  0  0  0  0  0  0
  1  2  1  0
  2  3  1  0
  3  4  2  0
  4  5  1  0
  5  6  1  0
  1  6  1  0
  1  7  1  0
  7  8  1  0
  2  8  1  0
  7  9  1  1
  9 10  1  0
 10 11  2  0
  8 12  2  0
 10 13  1  0
  4 14  1  0
  3 15  1  0
 15 16  2  0
 15 17  1  0
 13 18  1  0
 14 19  1  0
 19 20  1  0
 20 21  2  0
 21 22  1  0
 22 23  2  0
 23 24  1  0
 20 24  1  0
 23 25  1  0
 18 26  1  0
 26 27  2  0
 27 28  1  0
 28 29  2  0
 18 29  1  0
  1 30  1  6
  5 31  1  0
  5 32  1  0
  7 33  1  0
  9 34  1  0
 13 35  1  0
 13 36  1  0
 14 37  1  0
 14 38  1  0
 17 39  1  0
 25 40  1  0
 25 41  1  0
 25 42  1  0
 26 43  1  0
M  END
>  <ALOGPS_LOGP>  (1) 
-0.40

>  <ALOGPS_LOGS>  (1) 
-2.97

>  <ALOGPS_SOLUBILITY>  (1) 
4.87e-01 g/l

>  <DATABASE_ID>  (1) 
DB01327

>  <DATABASE_NAME>  (1) 
drugbank

>  <DRUGBANK_ID>  (1) 
DB01327

>  <DRUG_GROUPS>  (1) 
approved

>  <EXACT_MASS>  (1) 
454.030013046

>  <FORMULA>  (1) 
C14H14N8O4S3

>  <GENERIC_NAME>  (1) 
Cefazolin

>  <INCHI_IDENTIFIER>  (1) 
InChI=1S/C14H14N8O4S3/c1-6-17-18-14(29-6)28-4-7-3-27-12-9(11(24)22(12)10(7)13(25)26)16-8(23)2-21-5-15-19-20-21/h5,9,12H,2-4H2,1H3,(H,16,23)(H,25,26)/t9-,12-/m1/s1

>  <INCHI_KEY>  (1) 
MLYYVTUWGNIJIB-BXKDBHETSA-N

>  <INTERNATIONAL_BRANDS>  (1) 
Ancef; Elzogram; Zolicef

>  <JCHEM_ACCEPTOR_COUNT>  (1) 
9

>  <JCHEM_AVERAGE_POLARIZABILITY>  (1) 
41.43772346461959

>  <JCHEM_BIOAVAILABILITY>  (1) 
1

>  <JCHEM_DONOR_COUNT>  (1) 
2

>  <JCHEM_FORMAL_CHARGE>  (1) 
0

>  <JCHEM_GHOSE_FILTER>  (1) 
0

>  <JCHEM_IUPAC>  (1) 
(6R,7R)-3-{[(5-methyl-1,3,4-thiadiazol-2-yl)sulfanyl]methyl}-8-oxo-7-[2-(1H-1,2,3,4-tetrazol-1-yl)acetamido]-5-thia-1-azabicyclo[4.2.0]oct-2-ene-2-carboxylic acid

>  <JCHEM_LOGP>  (1) 
-1.5194100909999997

>  <JCHEM_MDDR_LIKE_RULE>  (1) 
1

>  <JCHEM_NUMBER_OF_RINGS>  (1) 
4

>  <JCHEM_PHYSIOLOGICAL_CHARGE>  (1) 
-1

>  <JCHEM_PKA>  (1) 
10.870217506570608

>  <JCHEM_PKA_STRONGEST_ACIDIC>  (1) 
3.0265585266047665

>  <JCHEM_PKA_STRONGEST_BASIC>  (1) 
0.2573286067906708

>  <JCHEM_POLAR_SURFACE_AREA>  (1) 
156.08999999999997

>  <JCHEM_REFRACTIVITY>  (1) 
119.8562

>  <JCHEM_ROTATABLE_BOND_COUNT>  (1) 
7

>  <JCHEM_RULE_OF_FIVE>  (1) 
1

>  <JCHEM_TRADITIONAL_IUPAC>  (1) 
cefazolin

>  <JCHEM_VEBER_RULE>  (1) 
0

>  <MOLECULAR_WEIGHT>  (1) 
454.507

>  <PRODUCTS>  (1) 
Ancef Inj Pws 10gm/vial USP; Ancef Inj Pws 1gm/vial USP; Ancef Inj Pws 500mg/vial USP; Cefazolin; Cefazolin Sodium; Cefazolin for Injection; Cefazolin for Injection USP; Cefazolin for Injection, USP; Kefzol; Kefzol Add-vantage Inj 1gm/vial; Kefzol Add-vantage Inj 500mg/vial; Sterile Cefazolin Sodium

>  <SALTS>  (1) 
Cefazolin sodium

>  <SMILES>  (1) 
[H][C@]12SCC(CSC3=NN=C(C)S3)=C(N1C(=O)[C@H]2NC(=O)CN1C=NN=N1)C(O)=O

>  <SYNONYMS>  (1) 
(6R,7R)-3-{[(5-methyl-1,3,4-thiadiazol-2-yl)sulfanyl]methyl}-8-oxo-7-[(1H-tetrazol-1-ylacetyl)amino]-5-thia-1-azabicyclo[4.2.0]oct-2-ene-2-carboxylic acid; Cefamezin; Cefazolina; Cefazoline; Cefazolinum; Cephamezine; Cephazolidin; Cephazolin; Cephazoline; CEZ

$$$$
