1233
     RDKit          2D

 42 42  0  0  0  0  0  0  0  0999 V2000
    5.2224   -2.5534    0.0000 Cl  0  0  0  0  0  0  0  0  0  0  0  0
    2.3645   -0.9034    0.0000 O   0  0  0  0  0  0  0  0  0  0  0  0
    3.0791    0.3341    0.0000 O   0  0  0  0  0  0  0  0  0  0  0  0
    5.2224    2.3967    0.0000 N   0  0  0  0  0  0  0  0  0  0  0  0
    4.5080    0.3341    0.0000 N   0  0  0  0  0  0  0  0  0  0  0  0
    3.7935   -3.3784    0.0000 N   0  0  0  0  0  0  0  0  0  0  0  0
    5.2224    1.5717    0.0000 C   0  0  0  0  0  0  0  0  0  0  0  0
    5.9370    2.8092    0.0000 C   0  0  0  0  0  0  0  0  0  0  0  0
    4.5080    2.8092    0.0000 C   0  0  0  0  0  0  0  0  0  0  0  0
    4.5080    1.1592    0.0000 C   0  0  0  0  0  0  0  0  0  0  0  0
    5.9370    3.6342    0.0000 C   0  0  0  0  0  0  0  0  0  0  0  0
    4.5080    3.6342    0.0000 C   0  0  0  0  0  0  0  0  0  0  0  0
    3.7935   -0.0784    0.0000 C   0  0  0  0  0  0  0  0  0  0  0  0
    3.7935   -0.9034    0.0000 C   0  0  0  0  0  0  0  0  0  0  0  0
    3.0791   -1.3159    0.0000 C   0  0  0  0  0  0  0  0  0  0  0  0
    4.5080   -1.3159    0.0000 C   0  0  0  0  0  0  0  0  0  0  0  0
    3.0791   -2.1409    0.0000 C   0  0  0  0  0  0  0  0  0  0  0  0
    3.7935   -2.5534    0.0000 C   0  0  0  0  0  0  0  0  0  0  0  0
    4.5080   -2.1409    0.0000 C   0  0  0  0  0  0  0  0  0  0  0  0
    1.6500   -1.3159    0.0000 C   0  0  0  0  0  0  0  0  0  0  0  0
    0.0000    0.0000    0.0000 H   0  0  0  0  0  0  0  0  0  0  0  0
    0.0000    0.0000    0.0000 H   0  0  0  0  0  0  0  0  0  0  0  0
    0.0000    0.0000    0.0000 H   0  0  0  0  0  0  0  0  0  0  0  0
    0.0000    0.0000    0.0000 H   0  0  0  0  0  0  0  0  0  0  0  0
    0.0000    0.0000    0.0000 H   0  0  0  0  0  0  0  0  0  0  0  0
    0.0000    0.0000    0.0000 H   0  0  0  0  0  0  0  0  0  0  0  0
    0.0000    0.0000    0.0000 H   0  0  0  0  0  0  0  0  0  0  0  0
    0.0000    0.0000    0.0000 H   0  0  0  0  0  0  0  0  0  0  0  0
    0.0000    0.0000    0.0000 H   0  0  0  0  0  0  0  0  0  0  0  0
    0.0000    0.0000    0.0000 H   0  0  0  0  0  0  0  0  0  0  0  0
    0.0000    0.0000    0.0000 H   0  0  0  0  0  0  0  0  0  0  0  0
    0.0000    0.0000    0.0000 H   0  0  0  0  0  0  0  0  0  0  0  0
    0.0000    0.0000    0.0000 H   0  0  0  0  0  0  0  0  0  0  0  0
    0.0000    0.0000    0.0000 H   0  0  0  0  0  0  0  0  0  0  0  0
    0.0000    0.0000    0.0000 H   0  0  0  0  0  0  0  0  0  0  0  0
    0.0000    0.0000    0.0000 H   0  0  0  0  0  0  0  0  0  0  0  0
    0.0000    0.0000    0.0000 H   0  0  0  0  0  0  0  0  0  0  0  0
    0.0000    0.0000    0.0000 H   0  0  0  0  0  0  0  0  0  0  0  0
    0.0000    0.0000    0.0000 H   0  0  0  0  0  0  0  0  0  0  0  0
    0.0000    0.0000    0.0000 H   0  0  0  0  0  0  0  0  0  0  0  0
    0.0000    0.0000    0.0000 H   0  0  0  0  0  0  0  0  0  0  0  0
    0.0000    0.0000    0.0000 H   0  0  0  0  0  0  0  0  0  0  0  0
  1 19  1  0
  2 15  1  0
  2 20  1  0
  3 13  2  0
  4  7  1  0
  4  8  1  0
  4  9  1  0
  5 10  1  0
  5 13  1  0
  6 18  1  0
  7 10  1  0
  8 11  1  0
  9 12  1  0
 13 14  1  0
 14 15  2  0
 14 16  1  0
 15 17  1  0
 16 19  2  0
 17 18  2  0
 18 19  1  0
  5 21  1  0
  6 22  1  0
  6 23  1  0
  7 24  1  0
  7 25  1  0
  8 26  1  0
  8 27  1  0
  9 28  1  0
  9 29  1  0
 10 30  1  0
 10 31  1  0
 11 32  1  0
 11 33  1  0
 11 34  1  0
 12 35  1  0
 12 36  1  0
 12 37  1  0
 16 38  1  0
 17 39  1  0
 20 40  1  0
 20 41  1  0
 20 42  1  0
M  END
>  <ALOGPS_LOGP>  (1) 
2.18

>  <ALOGPS_LOGS>  (1) 
-2.99

>  <ALOGPS_SOLUBILITY>  (1) 
3.10e-01 g/l

>  <DATABASE_ID>  (1) 
DB01233

>  <DATABASE_NAME>  (1) 
drugbank

>  <DRUGBANK_ID>  (1) 
DB01233

>  <DRUG_GROUPS>  (1) 
approved; investigational

>  <EXACT_MASS>  (1) 
299.14005467

>  <FORMULA>  (1) 
C14H22ClN3O2

>  <GENERIC_NAME>  (1) 
Metoclopramide

>  <INCHI_IDENTIFIER>  (1) 
InChI=1S/C14H22ClN3O2/c1-4-18(5-2)7-6-17-14(19)10-8-11(15)12(16)9-13(10)20-3/h8-9H,4-7,16H2,1-3H3,(H,17,19)

>  <INCHI_KEY>  (1) 
TTWJBBZEZQICBI-UHFFFAOYSA-N

>  <INTERNATIONAL_BRANDS>  (1) 
Cerucal; Degan; Elieten; Maxeran; Maxolon; METOZOLV; Plasil1; Plazilin; Pramin; Primperan; Pulin; Pylomid; Reliveran

>  <JCHEM_ACCEPTOR_COUNT>  (1) 
4

>  <JCHEM_AVERAGE_POLARIZABILITY>  (1) 
32.700490906362454

>  <JCHEM_BIOAVAILABILITY>  (1) 
1

>  <JCHEM_DONOR_COUNT>  (1) 
2

>  <JCHEM_FORMAL_CHARGE>  (1) 
0

>  <JCHEM_GHOSE_FILTER>  (1) 
1

>  <JCHEM_IUPAC>  (1) 
4-amino-5-chloro-N-[2-(diethylamino)ethyl]-2-methoxybenzamide

>  <JCHEM_LOGP>  (1) 
1.3972700643333331

>  <JCHEM_MDDR_LIKE_RULE>  (1) 
0

>  <JCHEM_NUMBER_OF_RINGS>  (1) 
1

>  <JCHEM_PHYSIOLOGICAL_CHARGE>  (1) 
1

>  <JCHEM_PKA>  (1) 
18.77630126903981

>  <JCHEM_PKA_STRONGEST_ACIDIC>  (1) 
14.490737398855252

>  <JCHEM_PKA_STRONGEST_BASIC>  (1) 
9.04434504788954

>  <JCHEM_POLAR_SURFACE_AREA>  (1) 
67.59

>  <JCHEM_REFRACTIVITY>  (1) 
83.5178

>  <JCHEM_ROTATABLE_BOND_COUNT>  (1) 
7

>  <JCHEM_RULE_OF_FIVE>  (1) 
1

>  <JCHEM_TRADITIONAL_IUPAC>  (1) 
metoclopramide

>  <JCHEM_VEBER_RULE>  (1) 
0

>  <MOLECULAR_WEIGHT>  (1) 
299.796

>  <PRODUCTS>  (1) 
Apo-metoclop Tab 10mg; Apo-metoclop Tab 5mg; METOCLOPRAMIDE hydrochloride; Maxeran 5mg Tab; Maxeran Liq; Maxeran-10 (10mg Tablet); Maxeran-5 (5mg Tablet); Metoclopramide; Metoclopramide Hydrochloride; Metoclopramide Hydrochloride Injection; Metoclopramide Hydrochloride Injection Hs; Metoclopramide Omega; Metoclopramide Tab 10mg; Metoclopramide Tab 5mg; Metoclopramide hydrochloride; Metonia; Metozolv ODT; Nu-metoclopramide-tab 10mg; Nu-metoclopramide-tab 5mg; Reglan; Reglan Inj 5mg/ml; Reglan Injectable Liq 5mg/ml; Reglan Syr 1mg/ml; Reglan Syrup 1mg/ml; Reglan Tab 10mg; Reglan Tab 5mg; Reglan-5 Tab 5mg

>  <SALTS>  (1) 
Metoclopramide hydrochloride; Metoclopramide hydrochloride monohydrate

>  <SECONDARY_ACCESSION_NUMBERS>  (1) 
APRD00665

>  <SMILES>  (1) 
CCN(CC)CCNC(=O)C1=CC(Cl)=C(N)C=C1OC

>  <SYNONYMS>  (1) 
2-methoxy-4-amino-5-chloro-N,N-(dimethylaminoethyl)benzamide; 2-methoxy-5-chloroprocainamide; 4-amino-5-chloro-2-methoxy-N-(Î²-diethylaminoethyl)benzamide; 4-amino-5-chloro-N-(2-(diethylamino)ethyl)-o-anisamide; Metoclopramida; Metoclopramidum

$$$$
