1099
     RDKit          2D

 13 13  0  0  0  0  0  0  0  0999 V2000
    2.0930    1.0808    0.0000 F   0  0  0  0  0  0  0  0  0  0  0  0
    4.9509   -0.5693    0.0000 O   0  0  0  0  0  0  0  0  0  0  0  0
    3.5220   -0.5693    0.0000 N   0  0  0  0  0  0  0  0  0  0  0  0
    2.0930   -0.5693    0.0000 N   0  0  0  0  0  0  0  0  0  0  0  0
    4.2365    0.6683    0.0000 N   0  0  0  0  0  0  0  0  0  0  0  0
    2.8075   -0.1568    0.0000 C   0  0  0  0  0  0  0  0  0  0  0  0
    2.8075    0.6683    0.0000 C   0  0  0  0  0  0  0  0  0  0  0  0
    4.2365   -0.1568    0.0000 C   0  0  0  0  0  0  0  0  0  0  0  0
    3.5220    1.0808    0.0000 C   0  0  0  0  0  0  0  0  0  0  0  0
    0.0000    0.0000    0.0000 H   0  0  0  0  0  0  0  0  0  0  0  0
    0.0000    0.0000    0.0000 H   0  0  0  0  0  0  0  0  0  0  0  0
    0.0000    0.0000    0.0000 H   0  0  0  0  0  0  0  0  0  0  0  0
    0.0000    0.0000    0.0000 H   0  0  0  0  0  0  0  0  0  0  0  0
  1  7  1  0
  2  8  2  0
  3  6  1  0
  3  8  1  0
  4  6  1  0
  5  8  1  0
  5  9  2  0
  6  7  2  0
  7  9  1  0
  3 10  1  0
  4 11  1  0
  4 12  1  0
  9 13  1  0
M  END
>  <ALOGPS_LOGP>  (1) 
-0.24

>  <ALOGPS_LOGS>  (1) 
-1.83

>  <ALOGPS_SOLUBILITY>  (1) 
1.92e+00 g/l

>  <DATABASE_ID>  (1) 
DB01099

>  <DATABASE_NAME>  (1) 
drugbank

>  <DRUGBANK_ID>  (1) 
DB01099

>  <DRUG_GROUPS>  (1) 
approved

>  <EXACT_MASS>  (1) 
129.03383997

>  <FORMULA>  (1) 
C4H4FN3O

>  <GENERIC_NAME>  (1) 
Flucytosine

>  <INCHI_IDENTIFIER>  (1) 
InChI=1S/C4H4FN3O/c5-2-1-7-4(9)8-3(2)6/h1H,(H3,6,7,8,9)

>  <INCHI_KEY>  (1) 
XRECTZIEBJDKEO-UHFFFAOYSA-N

>  <INTERNATIONAL_BRANDS>  (1) 
Ancotil; Flusine

>  <JCHEM_ACCEPTOR_COUNT>  (1) 
3

>  <JCHEM_AVERAGE_POLARIZABILITY>  (1) 
9.973904378734243

>  <JCHEM_BIOAVAILABILITY>  (1) 
1

>  <JCHEM_DONOR_COUNT>  (1) 
2

>  <JCHEM_FORMAL_CHARGE>  (1) 
0

>  <JCHEM_GHOSE_FILTER>  (1) 
0

>  <JCHEM_IUPAC>  (1) 
6-amino-5-fluoro-1,2-dihydropyrimidin-2-one

>  <JCHEM_LOGP>  (1) 
-0.9481628816666665

>  <JCHEM_MDDR_LIKE_RULE>  (1) 
0

>  <JCHEM_NUMBER_OF_RINGS>  (1) 
1

>  <JCHEM_PHYSIOLOGICAL_CHARGE>  (1) 
0

>  <JCHEM_PKA_STRONGEST_ACIDIC>  (1) 
8.163186658693784

>  <JCHEM_PKA_STRONGEST_BASIC>  (1) 
1.0557196693239448

>  <JCHEM_POLAR_SURFACE_AREA>  (1) 
67.48

>  <JCHEM_REFRACTIVITY>  (1) 
38.2177

>  <JCHEM_ROTATABLE_BOND_COUNT>  (1) 
0

>  <JCHEM_RULE_OF_FIVE>  (1) 
1

>  <JCHEM_TRADITIONAL_IUPAC>  (1) 
flucytosine

>  <JCHEM_VEBER_RULE>  (1) 
0

>  <MOLECULAR_WEIGHT>  (1) 
129.0925

>  <PRODUCTS>  (1) 
Ancobon; Flucytosine

>  <SECONDARY_ACCESSION_NUMBERS>  (1) 
APRD00299

>  <SMILES>  (1) 
NC1=C(F)C=NC(=O)N1

>  <SYNONYMS>  (1) 
5-FC; 5-Fluorocystosine; 5-Fluorocytosine

$$$$
