1419
     RDKit          2D

 68 72  0  0  0  0  0  0  0  0999 V2000
    3.3000   -4.8937    0.0000 F   0  0  0  0  0  0  0  0  0  0  0  0
    1.6500   -4.8745    0.0000 F   0  0  0  0  0  0  0  0  0  0  0  0
    2.4655   -5.7090    0.0000 F   0  0  0  0  0  0  0  0  0  0  0  0
    3.5636    4.2801    0.0000 F   0  0  0  0  0  0  0  0  0  0  0  0
    3.2615    5.4071    0.0000 F   0  0  0  0  0  0  0  0  0  0  0  0
    4.3886    5.7090    0.0000 F   0  0  0  0  0  0  0  0  0  0  0  0
    6.8188    0.0161    0.0000 O   0  0  0  0  0  0  0  0  0  0  0  0
    6.1187    1.2618    0.0000 O   0  0  0  0  0  0  0  0  0  0  0  0
    5.3709   -1.6173    0.0000 N   0  0  0  0  0  0  0  0  0  0  0  0
    3.9325   -2.4257    0.0000 N   0  0  0  0  0  0  0  0  0  0  0  0
    6.8475    2.4910    0.0000 N   0  0  0  0  0  0  0  0  0  0  0  0
    6.8570    5.0232    0.0000 N   0  0  0  0  0  0  0  0  0  0  0  0
    5.3614   -2.4423    0.0000 C   0  0  0  0  0  0  0  0  0  0  0  0
    4.6613   -1.1965    0.0000 C   0  0  0  0  0  0  0  0  0  0  0  0
    4.6421   -2.8465    0.0000 C   0  0  0  0  0  0  0  0  0  0  0  0
    3.9420   -1.6008    0.0000 C   0  0  0  0  0  0  0  0  0  0  0  0
    6.0901   -1.2131    0.0000 C   0  0  0  0  0  0  0  0  0  0  0  0
    3.2133   -2.8300    0.0000 C   0  0  0  0  0  0  0  0  0  0  0  0
    6.0997   -0.3881    0.0000 C   0  0  0  0  0  0  0  0  0  0  0  0
    3.2037   -3.6549    0.0000 C   0  0  0  0  0  0  0  0  0  0  0  0
    2.5036   -2.4092    0.0000 C   0  0  0  0  0  0  0  0  0  0  0  0
    2.4845   -4.0592    0.0000 C   0  0  0  0  0  0  0  0  0  0  0  0
    1.7844   -2.8135    0.0000 C   0  0  0  0  0  0  0  0  0  0  0  0
    1.7749   -3.6384    0.0000 C   0  0  0  0  0  0  0  0  0  0  0  0
    2.4750   -4.8841    0.0000 C   0  0  0  0  0  0  0  0  0  0  0  0
    6.8284    0.8410    0.0000 C   0  0  0  0  0  0  0  0  0  0  0  0
    7.5476    1.2453    0.0000 C   0  0  0  0  0  0  0  0  0  0  0  0
    7.5571    2.0702    0.0000 C   0  0  0  0  0  0  0  0  0  0  0  0
    6.8570    3.3159    0.0000 C   0  0  0  0  0  0  0  0  0  0  0  0
    6.1195    3.7570    0.0000 C   0  0  0  0  0  0  0  0  0  0  0  0
    8.2573    0.8245    0.0000 C   0  0  0  0  0  0  0  0  0  0  0  0
    6.1195    4.5821    0.0000 C   0  0  0  0  0  0  0  0  0  0  0  0
    8.2763    2.4745    0.0000 C   0  0  0  0  0  0  0  0  0  0  0  0
    5.4050    3.3445    0.0000 C   0  0  0  0  0  0  0  0  0  0  0  0
    7.6045    3.7399    0.0000 C   0  0  0  0  0  0  0  0  0  0  0  0
    8.9765    1.2288    0.0000 C   0  0  0  0  0  0  0  0  0  0  0  0
    5.4050    4.9946    0.0000 C   0  0  0  0  0  0  0  0  0  0  0  0
    4.6905    4.5821    0.0000 C   0  0  0  0  0  0  0  0  0  0  0  0
    8.9860    2.0537    0.0000 C   0  0  0  0  0  0  0  0  0  0  0  0
    4.6905    3.7570    0.0000 C   0  0  0  0  0  0  0  0  0  0  0  0
    7.6045    4.5992    0.0000 C   0  0  0  0  0  0  0  0  0  0  0  0
    3.9761    4.9946    0.0000 C   0  0  0  0  0  0  0  0  0  0  0  0
    0.0000    0.0000    0.0000 H   0  0  0  0  0  0  0  0  0  0  0  0
    0.0000    0.0000    0.0000 H   0  0  0  0  0  0  0  0  0  0  0  0
    0.0000    0.0000    0.0000 H   0  0  0  0  0  0  0  0  0  0  0  0
    0.0000    0.0000    0.0000 H   0  0  0  0  0  0  0  0  0  0  0  0
    0.0000    0.0000    0.0000 H   0  0  0  0  0  0  0  0  0  0  0  0
    0.0000    0.0000    0.0000 H   0  0  0  0  0  0  0  0  0  0  0  0
    0.0000    0.0000    0.0000 H   0  0  0  0  0  0  0  0  0  0  0  0
    0.0000    0.0000    0.0000 H   0  0  0  0  0  0  0  0  0  0  0  0
    0.0000    0.0000    0.0000 H   0  0  0  0  0  0  0  0  0  0  0  0
    0.0000    0.0000    0.0000 H   0  0  0  0  0  0  0  0  0  0  0  0
    0.0000    0.0000    0.0000 H   0  0  0  0  0  0  0  0  0  0  0  0
    0.0000    0.0000    0.0000 H   0  0  0  0  0  0  0  0  0  0  0  0
    0.0000    0.0000    0.0000 H   0  0  0  0  0  0  0  0  0  0  0  0
    0.0000    0.0000    0.0000 H   0  0  0  0  0  0  0  0  0  0  0  0
    0.0000    0.0000    0.0000 H   0  0  0  0  0  0  0  0  0  0  0  0
    0.0000    0.0000    0.0000 H   0  0  0  0  0  0  0  0  0  0  0  0
    0.0000    0.0000    0.0000 H   0  0  0  0  0  0  0  0  0  0  0  0
    0.0000    0.0000    0.0000 H   0  0  0  0  0  0  0  0  0  0  0  0
    0.0000    0.0000    0.0000 H   0  0  0  0  0  0  0  0  0  0  0  0
    0.0000    0.0000    0.0000 H   0  0  0  0  0  0  0  0  0  0  0  0
    0.0000    0.0000    0.0000 H   0  0  0  0  0  0  0  0  0  0  0  0
    0.0000    0.0000    0.0000 H   0  0  0  0  0  0  0  0  0  0  0  0
    0.0000    0.0000    0.0000 H   0  0  0  0  0  0  0  0  0  0  0  0
    0.0000    0.0000    0.0000 H   0  0  0  0  0  0  0  0  0  0  0  0
    0.0000    0.0000    0.0000 H   0  0  0  0  0  0  0  0  0  0  0  0
    0.0000    0.0000    0.0000 H   0  0  0  0  0  0  0  0  0  0  0  0
  1 25  1  0
  2 25  1  0
  3 25  1  0
  4 42  1  0
  5 42  1  0
  6 42  1  0
  7 19  1  0
  7 26  1  0
  8 26  2  0
  9 13  1  0
  9 14  1  0
  9 17  1  0
 10 15  1  0
 10 16  1  0
 10 18  1  0
 11 28  1  0
 11 29  1  0
 12 32  2  0
 12 41  1  0
 13 15  1  0
 14 16  1  0
 17 19  1  0
 18 20  2  0
 18 21  1  0
 20 22  1  0
 21 23  2  0
 22 24  2  0
 22 25  1  0
 23 24  1  0
 26 27  1  0
 27 28  1  0
 27 31  2  0
 28 33  2  0
 29 30  2  0
 29 35  1  0
 30 32  1  0
 30 34  1  0
 31 36  1  0
 32 37  1  0
 33 39  1  0
 34 40  2  0
 35 41  2  0
 36 39  2  0
 37 38  2  0
 38 40  1  0
 38 42  1  0
 11 43  1  0
 13 44  1  0
 13 45  1  0
 14 46  1  0
 14 47  1  0
 15 48  1  0
 15 49  1  0
 16 50  1  0
 16 51  1  0
 17 52  1  0
 17 53  1  0
 19 54  1  0
 19 55  1  0
 20 56  1  0
 21 57  1  0
 23 58  1  0
 24 59  1  0
 31 60  1  0
 33 61  1  0
 34 62  1  0
 35 63  1  0
 36 64  1  0
 37 65  1  0
 39 66  1  0
 40 67  1  0
 41 68  1  0
M  END
>  <ALOGPS_LOGP>  (1) 
6.30

>  <ALOGPS_LOGS>  (1) 
-5.32

>  <ALOGPS_SOLUBILITY>  (1) 
2.84e-03 g/l

>  <DATABASE_ID>  (1) 
DB01419

>  <DATABASE_NAME>  (1) 
drugbank

>  <DRUGBANK_ID>  (1) 
DB01419

>  <DRUG_GROUPS>  (1) 
approved

>  <EXACT_MASS>  (1) 
588.195995326

>  <FORMULA>  (1) 
C30H26F6N4O2

>  <GENERIC_NAME>  (1) 
Antrafenine

>  <INCHI_IDENTIFIER>  (1) 
InChI=1S/C30H26F6N4O2/c31-29(32,33)20-4-3-5-22(18-20)40-14-12-39(13-15-40)16-17-42-28(41)24-6-1-2-7-25(24)38-26-10-11-37-27-19-21(30(34,35)36)8-9-23(26)27/h1-11,18-19H,12-17H2,(H,37,38)

>  <INCHI_KEY>  (1) 
NWGGKKGAFZIVBJ-UHFFFAOYSA-N

>  <INTERNATIONAL_BRANDS>  (1) 
Stakane

>  <JCHEM_ACCEPTOR_COUNT>  (1) 
5

>  <JCHEM_AVERAGE_POLARIZABILITY>  (1) 
55.484876805557604

>  <JCHEM_BIOAVAILABILITY>  (1) 
0

>  <JCHEM_DONOR_COUNT>  (1) 
1

>  <JCHEM_FORMAL_CHARGE>  (1) 
0

>  <JCHEM_GHOSE_FILTER>  (1) 
0

>  <JCHEM_IUPAC>  (1) 
2-{4-[3-(trifluoromethyl)phenyl]piperazin-1-yl}ethyl 2-{[7-(trifluoromethyl)quinolin-4-yl]amino}benzoate

>  <JCHEM_LOGP>  (1) 
8.386884484333335

>  <JCHEM_MDDR_LIKE_RULE>  (1) 
1

>  <JCHEM_NUMBER_OF_RINGS>  (1) 
5

>  <JCHEM_PHYSIOLOGICAL_CHARGE>  (1) 
0

>  <JCHEM_PKA_STRONGEST_ACIDIC>  (1) 
16.689033935415786

>  <JCHEM_PKA_STRONGEST_BASIC>  (1) 
7.040454055241334

>  <JCHEM_POLAR_SURFACE_AREA>  (1) 
57.7

>  <JCHEM_REFRACTIVITY>  (1) 
147.0059

>  <JCHEM_ROTATABLE_BOND_COUNT>  (1) 
10

>  <JCHEM_RULE_OF_FIVE>  (1) 
0

>  <JCHEM_TRADITIONAL_IUPAC>  (1) 
antrafenine

>  <JCHEM_VEBER_RULE>  (1) 
0

>  <MOLECULAR_WEIGHT>  (1) 
588.5435

>  <SMILES>  (1) 
FC(F)(F)C1=CC(=CC=C1)N1CCN(CCOC(=O)C2=CC=CC=C2NC2=C3C=CC(=CC3=NC=C2)C(F)(F)F)CC1

$$$$
