1618
     RDKit          2D

 44 46  0  0  1  0  0  0  0  0999 V2000
    1.6500   -0.6625    0.0000 O   0  0  0  0  0  0  0  0  0  0  0  0
    5.2224    1.4001    0.0000 O   0  0  0  0  0  0  0  0  0  0  0  0
    3.0791    0.1625    0.0000 N   0  0  0  0  0  0  0  0  0  0  0  0
    6.7176   -0.9139    0.0000 N   0  0  0  0  0  0  0  0  0  0  0  0
    4.5080    0.1625    0.0000 C   0  0  0  0  0  0  0  0  0  0  0  0
    4.5080   -0.6625    0.0000 C   0  0  0  0  0  0  0  0  0  0  0  0
    3.7935    0.5750    0.0000 C   0  0  0  0  0  0  0  0  0  0  0  0
    5.2224   -1.0750    0.0000 C   0  0  0  0  0  0  0  0  0  0  0  0
    5.9370    0.1625    0.0000 C   0  0  0  0  0  0  0  0  0  0  0  0
    5.9370   -0.6625    0.0000 C   0  0  0  0  0  0  0  0  0  0  0  0
    5.2224    0.5750    0.0000 C   0  0  0  0  0  0  0  0  0  0  0  0
    6.7176    0.4140    0.0000 C   0  0  0  0  0  0  0  0  0  0  0  0
    2.3645    0.5750    0.0000 C   0  0  0  0  0  0  0  0  0  0  0  0
    3.0791   -0.6625    0.0000 C   0  0  0  0  0  0  0  0  0  0  0  0
    7.1991   -0.2500    0.0000 C   0  0  0  0  0  0  0  0  0  0  0  0
    1.6500    0.1625    0.0000 C   0  0  0  0  0  0  0  0  0  0  0  0
    2.3645   -1.0750    0.0000 C   0  0  0  0  0  0  0  0  0  0  0  0
    6.9739    1.1982    0.0000 C   0  0  0  0  0  0  0  0  0  0  0  0
    8.0241   -0.2500    0.0000 C   0  0  0  0  0  0  0  0  0  0  0  0
    7.7812    1.3683    0.0000 C   0  0  0  0  0  0  0  0  0  0  0  0
    0.0000    0.0000    0.0000 H   0  0  0  0  0  0  0  0  0  0  0  0
    0.0000    0.0000    0.0000 H   0  0  0  0  0  0  0  0  0  0  0  0
    0.0000    0.0000    0.0000 H   0  0  0  0  0  0  0  0  0  0  0  0
    0.0000    0.0000    0.0000 H   0  0  0  0  0  0  0  0  0  0  0  0
    0.0000    0.0000    0.0000 H   0  0  0  0  0  0  0  0  0  0  0  0
    0.0000    0.0000    0.0000 H   0  0  0  0  0  0  0  0  0  0  0  0
    0.0000    0.0000    0.0000 H   0  0  0  0  0  0  0  0  0  0  0  0
    0.0000    0.0000    0.0000 H   0  0  0  0  0  0  0  0  0  0  0  0
    0.0000    0.0000    0.0000 H   0  0  0  0  0  0  0  0  0  0  0  0
    0.0000    0.0000    0.0000 H   0  0  0  0  0  0  0  0  0  0  0  0
    0.0000    0.0000    0.0000 H   0  0  0  0  0  0  0  0  0  0  0  0
    0.0000    0.0000    0.0000 H   0  0  0  0  0  0  0  0  0  0  0  0
    0.0000    0.0000    0.0000 H   0  0  0  0  0  0  0  0  0  0  0  0
    0.0000    0.0000    0.0000 H   0  0  0  0  0  0  0  0  0  0  0  0
    0.0000    0.0000    0.0000 H   0  0  0  0  0  0  0  0  0  0  0  0
    0.0000    0.0000    0.0000 H   0  0  0  0  0  0  0  0  0  0  0  0
    0.0000    0.0000    0.0000 H   0  0  0  0  0  0  0  0  0  0  0  0
    0.0000    0.0000    0.0000 H   0  0  0  0  0  0  0  0  0  0  0  0
    0.0000    0.0000    0.0000 H   0  0  0  0  0  0  0  0  0  0  0  0
    0.0000    0.0000    0.0000 H   0  0  0  0  0  0  0  0  0  0  0  0
    0.0000    0.0000    0.0000 H   0  0  0  0  0  0  0  0  0  0  0  0
    0.0000    0.0000    0.0000 H   0  0  0  0  0  0  0  0  0  0  0  0
    0.0000    0.0000    0.0000 H   0  0  0  0  0  0  0  0  0  0  0  0
    0.0000    0.0000    0.0000 H   0  0  0  0  0  0  0  0  0  0  0  0
  1 16  1  0
  1 17  1  0
  2 11  2  0
  3  7  1  0
  3 13  1  0
  3 14  1  0
  4 10  1  0
  4 15  1  0
  5  6  1  0
  5  7  1  0
  5 11  1  0
  6  8  1  0
  8 10  1  0
  9 10  2  0
  9 11  1  0
  9 12  1  0
 12 15  2  0
 12 18  1  0
 13 16  1  0
 14 17  1  0
 15 19  1  0
 18 20  1  0
  4 21  1  0
  5 22  1  0
  6 23  1  0
  6 24  1  0
  7 25  1  0
  7 26  1  0
  8 27  1  0
  8 28  1  0
 13 29  1  0
 13 30  1  0
 14 31  1  0
 14 32  1  0
 16 33  1  0
 16 34  1  0
 17 35  1  0
 17 36  1  0
 18 37  1  0
 18 38  1  0
 19 39  1  0
 19 40  1  0
 19 41  1  0
 20 42  1  0
 20 43  1  0
 20 44  1  0
M  END
>  <ALOGPS_LOGP>  (1) 
2.09

>  <ALOGPS_LOGS>  (1) 
-2.77

>  <ALOGPS_SOLUBILITY>  (1) 
4.74e-01 g/l

>  <DATABASE_ID>  (1) 
DB01618

>  <DATABASE_NAME>  (1) 
drugbank

>  <DRUGBANK_ID>  (1) 
DB01618

>  <DRUG_GROUPS>  (1) 
approved

>  <EXACT_MASS>  (1) 
276.183778022

>  <FORMULA>  (1) 
C16H24N2O2

>  <GENERIC_NAME>  (1) 
Molindone

>  <INCHI_IDENTIFIER>  (1) 
InChI=1S/C16H24N2O2/c1-3-13-11(2)17-14-5-4-12(16(19)15(13)14)10-18-6-8-20-9-7-18/h12,17H,3-10H2,1-2H3

>  <INCHI_KEY>  (1) 
KLPWJLBORRMFGK-UHFFFAOYSA-N

>  <JCHEM_ACCEPTOR_COUNT>  (1) 
3

>  <JCHEM_AVERAGE_POLARIZABILITY>  (1) 
32.000152547479566

>  <JCHEM_BIOAVAILABILITY>  (1) 
1

>  <JCHEM_DONOR_COUNT>  (1) 
1

>  <JCHEM_FORMAL_CHARGE>  (1) 
0

>  <JCHEM_GHOSE_FILTER>  (1) 
1

>  <JCHEM_IUPAC>  (1) 
3-ethyl-2-methyl-5-(morpholin-4-ylmethyl)-4,5,6,7-tetrahydro-1H-indol-4-one

>  <JCHEM_LOGP>  (1) 
2.0351150263333335

>  <JCHEM_MDDR_LIKE_RULE>  (1) 
0

>  <JCHEM_NUMBER_OF_RINGS>  (1) 
3

>  <JCHEM_PHYSIOLOGICAL_CHARGE>  (1) 
0

>  <JCHEM_PKA>  (1) 
16.729273140194294

>  <JCHEM_PKA_STRONGEST_ACIDIC>  (1) 
15.337674727361463

>  <JCHEM_PKA_STRONGEST_BASIC>  (1) 
6.650210282855951

>  <JCHEM_POLAR_SURFACE_AREA>  (1) 
45.33

>  <JCHEM_REFRACTIVITY>  (1) 
81.0594

>  <JCHEM_ROTATABLE_BOND_COUNT>  (1) 
3

>  <JCHEM_RULE_OF_FIVE>  (1) 
1

>  <JCHEM_TRADITIONAL_IUPAC>  (1) 
molindone

>  <JCHEM_VEBER_RULE>  (1) 
0

>  <MOLECULAR_WEIGHT>  (1) 
276.374

>  <PRODUCTS>  (1) 
Molindone Hydrochloride

>  <SALTS>  (1) 
Molindone hydrochloride

>  <SMILES>  (1) 
CCC1=C(C)NC2=C1C(=O)C(CN1CCOCC1)CC2

>  <SYNONYMS>  (1) 
Molindona; Molindonum

$$$$
