1177
     RDKit          2D

 63 67  0  0  1  0  0  0  0  0999 V2000
    4.9340    0.4160    0.0000 O   0  0  0  0  0  0  0  0  0  0  0  0
    3.5053    0.4325    0.0000 O   0  0  0  0  0  0  0  0  0  0  0  0
    3.7673   -2.4080    0.0000 O   0  0  0  0  0  0  0  0  0  0  0  0
    2.0957    2.0987    0.0000 O   0  0  0  0  0  0  0  0  0  0  0  0
    6.3763    0.3875    0.0000 O   0  0  0  0  0  0  0  0  0  0  0  0
    6.3763   -2.9122    0.0000 O   0  0  0  0  0  0  0  0  0  0  0  0
    2.9369   -0.9824    0.0000 O   0  0  0  0  0  0  0  0  0  0  0  0
    7.8185    0.4160    0.0000 O   0  0  0  0  0  0  0  0  0  0  0  0
    7.8185   -2.9407    0.0000 O   0  0  0  0  0  0  0  0  0  0  0  0
    3.5339    2.9071    0.0000 N   0  0  0  0  0  0  0  0  0  0  0  0
    4.9245   -0.4089    0.0000 C   0  0  0  0  0  0  0  0  0  0  0  0
    4.1770   -1.6920    0.0000 C   0  0  0  0  0  0  0  0  0  0  0  0
    4.1770   -0.8327    0.0000 C   0  0  0  0  0  0  0  0  0  0  0  0
    4.9245   -2.1159    0.0000 C   0  0  0  0  0  0  0  0  0  0  0  0
    5.6618   -0.8499    0.0000 C   0  0  0  0  0  0  0  0  0  0  0  0
    5.6618   -1.6749    0.0000 C   0  0  0  0  0  0  0  0  0  0  0  0
    4.2243    0.8367    0.0000 C   0  0  0  0  0  0  0  0  0  0  0  0
    4.2339    1.6616    0.0000 C   0  0  0  0  0  0  0  0  0  0  0  0
    3.5244    2.0822    0.0000 C   0  0  0  0  0  0  0  0  0  0  0  0
    2.8053    1.6781    0.0000 C   0  0  0  0  0  0  0  0  0  0  0  0
    2.7957    0.8532    0.0000 C   0  0  0  0  0  0  0  0  0  0  0  0
    6.3763   -0.4375    0.0000 C   0  0  0  0  0  0  0  0  0  0  0  0
    3.3521   -1.6952    0.0000 C   0  0  0  0  0  0  0  0  0  0  0  0
    6.3763   -2.0873    0.0000 C   0  0  0  0  0  0  0  0  0  0  0  0
    7.0907   -0.8499    0.0000 C   0  0  0  0  0  0  0  0  0  0  0  0
    7.0907   -1.6749    0.0000 C   0  0  0  0  0  0  0  0  0  0  0  0
    2.0766    0.4490    0.0000 C   0  0  0  0  0  0  0  0  0  0  0  0
    2.9423   -2.4111    0.0000 C   0  0  0  0  0  0  0  0  0  0  0  0
    7.8280   -0.4089    0.0000 C   0  0  0  0  0  0  0  0  0  0  0  0
    7.8280   -2.1159    0.0000 C   0  0  0  0  0  0  0  0  0  0  0  0
    8.5756   -0.8327    0.0000 C   0  0  0  0  0  0  0  0  0  0  0  0
    8.5756   -1.6920    0.0000 C   0  0  0  0  0  0  0  0  0  0  0  0
    9.3436   -0.3734    0.0000 C   0  0  0  0  0  0  0  0  0  0  0  0
    9.3436   -2.1514    0.0000 C   0  0  0  0  0  0  0  0  0  0  0  0
   10.1221   -0.8148    0.0000 C   0  0  0  0  0  0  0  0  0  0  0  0
   10.1221   -1.7099    0.0000 C   0  0  0  0  0  0  0  0  0  0  0  0
    0.0000    0.0000    0.0000 H   0  0  0  0  0  0  0  0  0  0  0  0
    0.0000    0.0000    0.0000 H   0  0  0  0  0  0  0  0  0  0  0  0
    0.0000    0.0000    0.0000 H   0  0  0  0  0  0  0  0  0  0  0  0
    0.0000    0.0000    0.0000 H   0  0  0  0  0  0  0  0  0  0  0  0
    0.0000    0.0000    0.0000 H   0  0  0  0  0  0  0  0  0  0  0  0
    0.0000    0.0000    0.0000 H   0  0  0  0  0  0  0  0  0  0  0  0
    0.0000    0.0000    0.0000 H   0  0  0  0  0  0  0  0  0  0  0  0
    0.0000    0.0000    0.0000 H   0  0  0  0  0  0  0  0  0  0  0  0
    0.0000    0.0000    0.0000 H   0  0  0  0  0  0  0  0  0  0  0  0
    0.0000    0.0000    0.0000 H   0  0  0  0  0  0  0  0  0  0  0  0
    0.0000    0.0000    0.0000 H   0  0  0  0  0  0  0  0  0  0  0  0
    0.0000    0.0000    0.0000 H   0  0  0  0  0  0  0  0  0  0  0  0
    0.0000    0.0000    0.0000 H   0  0  0  0  0  0  0  0  0  0  0  0
    0.0000    0.0000    0.0000 H   0  0  0  0  0  0  0  0  0  0  0  0
    0.0000    0.0000    0.0000 H   0  0  0  0  0  0  0  0  0  0  0  0
    0.0000    0.0000    0.0000 H   0  0  0  0  0  0  0  0  0  0  0  0
    0.0000    0.0000    0.0000 H   0  0  0  0  0  0  0  0  0  0  0  0
    0.0000    0.0000    0.0000 H   0  0  0  0  0  0  0  0  0  0  0  0
    0.0000    0.0000    0.0000 H   0  0  0  0  0  0  0  0  0  0  0  0
    0.0000    0.0000    0.0000 H   0  0  0  0  0  0  0  0  0  0  0  0
    0.0000    0.0000    0.0000 H   0  0  0  0  0  0  0  0  0  0  0  0
    0.0000    0.0000    0.0000 H   0  0  0  0  0  0  0  0  0  0  0  0
    0.0000    0.0000    0.0000 H   0  0  0  0  0  0  0  0  0  0  0  0
    0.0000    0.0000    0.0000 H   0  0  0  0  0  0  0  0  0  0  0  0
    0.0000    0.0000    0.0000 H   0  0  0  0  0  0  0  0  0  0  0  0
    0.0000    0.0000    0.0000 H   0  0  0  0  0  0  0  0  0  0  0  0
    0.0000    0.0000    0.0000 H   0  0  0  0  0  0  0  0  0  0  0  0
 11  1  1  6
 17  1  1  1
  2 17  1  0
  2 21  1  0
 12  3  1  6
 20  4  1  1
  5 22  1  0
  6 24  1  0
  7 23  2  0
  8 29  2  0
  9 30  2  0
 19 10  1  6
 11 13  1  0
 11 15  1  0
 12 13  1  0
 12 14  1  0
 12 23  1  0
 14 16  1  0
 15 16  2  0
 15 22  1  0
 16 24  1  0
 17 18  1  0
 18 19  1  0
 19 20  1  0
 20 21  1  0
 21 27  1  1
 22 25  2  0
 23 28  1  0
 24 26  2  0
 25 26  1  0
 25 29  1  0
 26 30  1  0
 29 31  1  0
 30 32  1  0
 31 32  2  0
 31 33  1  0
 32 34  1  0
 33 35  2  0
 34 36  2  0
 35 36  1  0
  3 37  1  0
  4 38  1  0
  5 39  1  0
  6 40  1  0
 10 41  1  0
 10 42  1  0
 11 43  1  0
 13 44  1  0
 13 45  1  0
 14 46  1  0
 14 47  1  0
 17 48  1  0
 18 49  1  0
 18 50  1  0
 19 51  1  0
 20 52  1  0
 21 53  1  0
 27 54  1  0
 27 55  1  0
 27 56  1  0
 28 57  1  0
 28 58  1  0
 28 59  1  0
 33 60  1  0
 34 61  1  0
 35 62  1  0
 36 63  1  0
M  END
>  <ALOGPS_LOGP>  (1) 
1.69

>  <ALOGPS_LOGS>  (1) 
-2.81

>  <ALOGPS_SOLUBILITY>  (1) 
7.72e-01 g/l

>  <DATABASE_ID>  (1) 
DB01177

>  <DATABASE_NAME>  (1) 
drugbank

>  <DRUGBANK_ID>  (1) 
DB01177

>  <DRUG_GROUPS>  (1) 
approved

>  <EXACT_MASS>  (1) 
497.168581467

>  <FORMULA>  (1) 
C26H27NO9

>  <GENERIC_NAME>  (1) 
Idarubicin

>  <INCHI_IDENTIFIER>  (1) 
InChI=1S/C26H27NO9/c1-10-21(29)15(27)7-17(35-10)36-16-9-26(34,11(2)28)8-14-18(16)25(33)20-19(24(14)32)22(30)12-5-3-4-6-13(12)23(20)31/h3-6,10,15-17,21,29,32-34H,7-9,27H2,1-2H3/t10-,15-,16-,17-,21+,26-/m0/s1

>  <INCHI_KEY>  (1) 
XDXDZDZNSLXDNA-TZNDIEGXSA-N

>  <INTERNATIONAL_BRANDS>  (1) 
Idamycin

>  <JCHEM_ACCEPTOR_COUNT>  (1) 
10

>  <JCHEM_AVERAGE_POLARIZABILITY>  (1) 
50.32805126190625

>  <JCHEM_BIOAVAILABILITY>  (1) 
1

>  <JCHEM_DONOR_COUNT>  (1) 
5

>  <JCHEM_FORMAL_CHARGE>  (1) 
0

>  <JCHEM_GHOSE_FILTER>  (1) 
0

>  <JCHEM_IUPAC>  (1) 
(7S,9S)-9-acetyl-7-{[(2R,4S,5S,6S)-4-amino-5-hydroxy-6-methyloxan-2-yl]oxy}-6,9,11-trihydroxy-5,7,8,9,10,12-hexahydrotetracene-5,12-dione

>  <JCHEM_LOGP>  (1) 
1.8979982868204401

>  <JCHEM_MDDR_LIKE_RULE>  (1) 
0

>  <JCHEM_NUMBER_OF_RINGS>  (1) 
5

>  <JCHEM_PHYSIOLOGICAL_CHARGE>  (1) 
1

>  <JCHEM_PKA>  (1) 
11.045032329150478

>  <JCHEM_PKA_STRONGEST_ACIDIC>  (1) 
9.545450443693808

>  <JCHEM_PKA_STRONGEST_BASIC>  (1) 
8.950454445515696

>  <JCHEM_POLAR_SURFACE_AREA>  (1) 
176.61

>  <JCHEM_REFRACTIVITY>  (1) 
126.4283

>  <JCHEM_ROTATABLE_BOND_COUNT>  (1) 
3

>  <JCHEM_RULE_OF_FIVE>  (1) 
1

>  <JCHEM_TRADITIONAL_IUPAC>  (1) 
idarubicin

>  <JCHEM_VEBER_RULE>  (1) 
0

>  <MOLECULAR_WEIGHT>  (1) 
497.4939

>  <PRODUCTS>  (1) 
Aj-idarubicin; Idamycin - Cap 10mg; Idamycin - Cap 25mg; Idamycin - Cap 5mg; Idamycin PFS; Idamycin Powder  -5mg/vial; Idamycin Powder -10mg/vial; Idamycin Pws 10mg/vial; Idamycin Pws 5mg/vial; Idarubicin; Idarubicin Hydrochloride; Idarubicin Hydrochloride Injection

>  <SALTS>  (1) 
Idarubicin Hydrochloride

>  <SECONDARY_ACCESSION_NUMBERS>  (1) 
APRD00126

>  <SMILES>  (1) 
C[C@@H]1O[C@H](C[C@H](N)[C@@H]1O)O[C@H]1C[C@@](O)(CC2=C1C(O)=C1C(=O)C3=CC=CC=C3C(=O)C1=C2O)C(C)=O

>  <SYNONYMS>  (1) 
Idarubicina; Idarubicine; Idarubicinum

$$$$
