1204
     RDKit          2D

 60 62  0  0  0  0  0  0  0  0999 V2000
    3.8495   -1.6500    0.0000 O   0  0  0  0  0  0  0  0  0  0  0  0
    3.8495    1.6500    0.0000 O   0  0  0  0  0  0  0  0  0  0  0  0
    2.4070   -1.6785    0.0000 O   0  0  0  0  0  0  0  0  0  0  0  0
    2.4070    1.6785    0.0000 O   0  0  0  0  0  0  0  0  0  0  0  0
    7.3922   -5.4155    0.0000 O   0  0  0  0  0  0  0  0  0  0  0  0
    7.3922    5.4155    0.0000 O   0  0  0  0  0  0  0  0  0  0  0  0
    5.2919   -1.6785    0.0000 N   0  0  0  0  0  0  0  0  0  0  0  0
    5.2919    1.6785    0.0000 N   0  0  0  0  0  0  0  0  0  0  0  0
    6.7016   -3.3450    0.0000 N   0  0  0  0  0  0  0  0  0  0  0  0
    6.7016    3.3450    0.0000 N   0  0  0  0  0  0  0  0  0  0  0  0
    4.5640   -0.4125    0.0000 C   0  0  0  0  0  0  0  0  0  0  0  0
    4.5640    0.4125    0.0000 C   0  0  0  0  0  0  0  0  0  0  0  0
    5.3015   -0.8536    0.0000 C   0  0  0  0  0  0  0  0  0  0  0  0
    5.3015    0.8536    0.0000 C   0  0  0  0  0  0  0  0  0  0  0  0
    3.1350   -0.4125    0.0000 C   0  0  0  0  0  0  0  0  0  0  0  0
    3.1350    0.4125    0.0000 C   0  0  0  0  0  0  0  0  0  0  0  0
    3.8495   -0.8250    0.0000 C   0  0  0  0  0  0  0  0  0  0  0  0
    3.8495    0.8250    0.0000 C   0  0  0  0  0  0  0  0  0  0  0  0
    6.0490   -0.4297    0.0000 C   0  0  0  0  0  0  0  0  0  0  0  0
    6.0490    0.4297    0.0000 C   0  0  0  0  0  0  0  0  0  0  0  0
    6.0015   -2.0993    0.0000 C   0  0  0  0  0  0  0  0  0  0  0  0
    6.0015    2.0993    0.0000 C   0  0  0  0  0  0  0  0  0  0  0  0
    2.3975   -0.8536    0.0000 C   0  0  0  0  0  0  0  0  0  0  0  0
    2.3975    0.8536    0.0000 C   0  0  0  0  0  0  0  0  0  0  0  0
    5.9921   -2.9242    0.0000 C   0  0  0  0  0  0  0  0  0  0  0  0
    5.9921    2.9242    0.0000 C   0  0  0  0  0  0  0  0  0  0  0  0
    1.6500   -0.4297    0.0000 C   0  0  0  0  0  0  0  0  0  0  0  0
    1.6500    0.4297    0.0000 C   0  0  0  0  0  0  0  0  0  0  0  0
    6.6922   -4.1699    0.0000 C   0  0  0  0  0  0  0  0  0  0  0  0
    6.6922    4.1699    0.0000 C   0  0  0  0  0  0  0  0  0  0  0  0
    7.4018   -4.5906    0.0000 C   0  0  0  0  0  0  0  0  0  0  0  0
    7.4018    4.5906    0.0000 C   0  0  0  0  0  0  0  0  0  0  0  0
    0.0000    0.0000    0.0000 H   0  0  0  0  0  0  0  0  0  0  0  0
    0.0000    0.0000    0.0000 H   0  0  0  0  0  0  0  0  0  0  0  0
    0.0000    0.0000    0.0000 H   0  0  0  0  0  0  0  0  0  0  0  0
    0.0000    0.0000    0.0000 H   0  0  0  0  0  0  0  0  0  0  0  0
    0.0000    0.0000    0.0000 H   0  0  0  0  0  0  0  0  0  0  0  0
    0.0000    0.0000    0.0000 H   0  0  0  0  0  0  0  0  0  0  0  0
    0.0000    0.0000    0.0000 H   0  0  0  0  0  0  0  0  0  0  0  0
    0.0000    0.0000    0.0000 H   0  0  0  0  0  0  0  0  0  0  0  0
    0.0000    0.0000    0.0000 H   0  0  0  0  0  0  0  0  0  0  0  0
    0.0000    0.0000    0.0000 H   0  0  0  0  0  0  0  0  0  0  0  0
    0.0000    0.0000    0.0000 H   0  0  0  0  0  0  0  0  0  0  0  0
    0.0000    0.0000    0.0000 H   0  0  0  0  0  0  0  0  0  0  0  0
    0.0000    0.0000    0.0000 H   0  0  0  0  0  0  0  0  0  0  0  0
    0.0000    0.0000    0.0000 H   0  0  0  0  0  0  0  0  0  0  0  0
    0.0000    0.0000    0.0000 H   0  0  0  0  0  0  0  0  0  0  0  0
    0.0000    0.0000    0.0000 H   0  0  0  0  0  0  0  0  0  0  0  0
    0.0000    0.0000    0.0000 H   0  0  0  0  0  0  0  0  0  0  0  0
    0.0000    0.0000    0.0000 H   0  0  0  0  0  0  0  0  0  0  0  0
    0.0000    0.0000    0.0000 H   0  0  0  0  0  0  0  0  0  0  0  0
    0.0000    0.0000    0.0000 H   0  0  0  0  0  0  0  0  0  0  0  0
    0.0000    0.0000    0.0000 H   0  0  0  0  0  0  0  0  0  0  0  0
    0.0000    0.0000    0.0000 H   0  0  0  0  0  0  0  0  0  0  0  0
    0.0000    0.0000    0.0000 H   0  0  0  0  0  0  0  0  0  0  0  0
    0.0000    0.0000    0.0000 H   0  0  0  0  0  0  0  0  0  0  0  0
    0.0000    0.0000    0.0000 H   0  0  0  0  0  0  0  0  0  0  0  0
    0.0000    0.0000    0.0000 H   0  0  0  0  0  0  0  0  0  0  0  0
    0.0000    0.0000    0.0000 H   0  0  0  0  0  0  0  0  0  0  0  0
    0.0000    0.0000    0.0000 H   0  0  0  0  0  0  0  0  0  0  0  0
  1 17  2  0
  2 18  2  0
  3 23  1  0
  4 24  1  0
  5 31  1  0
  6 32  1  0
  7 13  1  0
  7 21  1  0
  8 14  1  0
  8 22  1  0
  9 25  1  0
  9 29  1  0
 10 26  1  0
 10 30  1  0
 11 12  1  0
 11 13  2  0
 11 17  1  0
 12 14  2  0
 12 18  1  0
 13 19  1  0
 14 20  1  0
 15 16  2  0
 15 17  1  0
 15 23  1  0
 16 18  1  0
 16 24  1  0
 19 20  2  0
 21 25  1  0
 22 26  1  0
 23 27  2  0
 24 28  2  0
 27 28  1  0
 29 31  1  0
 30 32  1  0
  3 33  1  0
  4 34  1  0
  5 35  1  0
  6 36  1  0
  7 37  1  0
  8 38  1  0
  9 39  1  0
 10 40  1  0
 19 41  1  0
 20 42  1  0
 21 43  1  0
 21 44  1  0
 22 45  1  0
 22 46  1  0
 25 47  1  0
 25 48  1  0
 26 49  1  0
 26 50  1  0
 27 51  1  0
 28 52  1  0
 29 53  1  0
 29 54  1  0
 30 55  1  0
 30 56  1  0
 31 57  1  0
 31 58  1  0
 32 59  1  0
 32 60  1  0
M  END
>  <ALOGPS_LOGP>  (1) 
0.91

>  <ALOGPS_LOGS>  (1) 
-2.78

>  <ALOGPS_SOLUBILITY>  (1) 
7.34e-01 g/l

>  <DATABASE_ID>  (1) 
DB01204

>  <DATABASE_NAME>  (1) 
drugbank

>  <DRUGBANK_ID>  (1) 
DB01204

>  <DRUG_GROUPS>  (1) 
approved; investigational

>  <EXACT_MASS>  (1) 
444.200884648

>  <FORMULA>  (1) 
C22H28N4O6

>  <GENERIC_NAME>  (1) 
Mitoxantrone

>  <INCHI_IDENTIFIER>  (1) 
InChI=1S/C22H28N4O6/c27-11-9-23-5-7-25-13-1-2-14(26-8-6-24-10-12-28)18-17(13)21(31)19-15(29)3-4-16(30)20(19)22(18)32/h1-4,23-30H,5-12H2

>  <INCHI_KEY>  (1) 
KKZJGLLVHKMTCM-UHFFFAOYSA-N

>  <JCHEM_ACCEPTOR_COUNT>  (1) 
10

>  <JCHEM_AVERAGE_POLARIZABILITY>  (1) 
48.48888395951877

>  <JCHEM_BIOAVAILABILITY>  (1) 
0

>  <JCHEM_DONOR_COUNT>  (1) 
8

>  <JCHEM_FORMAL_CHARGE>  (1) 
0

>  <JCHEM_GHOSE_FILTER>  (1) 
1

>  <JCHEM_IUPAC>  (1) 
1,4-dihydroxy-5,8-bis({2-[(2-hydroxyethyl)amino]ethyl}amino)-9,10-dihydroanthracene-9,10-dione

>  <JCHEM_LOGP>  (1) 
1.1855144925179166

>  <JCHEM_MDDR_LIKE_RULE>  (1) 
1

>  <JCHEM_NUMBER_OF_RINGS>  (1) 
3

>  <JCHEM_PHYSIOLOGICAL_CHARGE>  (1) 
2

>  <JCHEM_PKA>  (1) 
11.443380219395294

>  <JCHEM_PKA_STRONGEST_ACIDIC>  (1) 
9.77568345472791

>  <JCHEM_PKA_STRONGEST_BASIC>  (1) 
9.08297868661571

>  <JCHEM_POLAR_SURFACE_AREA>  (1) 
163.18

>  <JCHEM_REFRACTIVITY>  (1) 
123.53379999999999

>  <JCHEM_ROTATABLE_BOND_COUNT>  (1) 
12

>  <JCHEM_RULE_OF_FIVE>  (1) 
0

>  <JCHEM_TRADITIONAL_IUPAC>  (1) 
mitoxantrone

>  <JCHEM_VEBER_RULE>  (1) 
0

>  <MOLECULAR_WEIGHT>  (1) 
444.4809

>  <PRODUCTS>  (1) 
Mitoxantrone; Mitoxantrone Hydrochloride; Mitoxantrone Injection; Mitoxantrone Injection USP; Novantrone; Novantrone Inj 2mg/ml; mitoXANTRONE

>  <SALTS>  (1) 
Mitoxantrone hydrochloride

>  <SECONDARY_ACCESSION_NUMBERS>  (1) 
APRD00371

>  <SMILES>  (1) 
OCCNCCNC1=C2C(=O)C3=C(O)C=CC(O)=C3C(=O)C2=C(NCCNCCO)C=C1

$$$$
