1122
     RDKit          2D

 78 79  0  0  0  0  0  0  0  0999 V2000
    9.5094    3.9188    0.0000 Cl  0  0  0  0  0  0  0  0  0  0  0  0
    1.6500   -3.9188    0.0000 Cl  0  0  0  0  0  0  0  0  0  0  0  0
    6.6515   -0.2063    0.0000 O   0  0  0  0  0  0  0  0  0  0  0  0
    4.5080    0.2063    0.0000 O   0  0  0  0  0  0  0  0  0  0  0  0
    7.3659    2.6813    0.0000 N   0  0  0  0  0  0  0  0  0  0  0  0
    3.7935   -2.6813    0.0000 N   0  0  0  0  0  0  0  0  0  0  0  0
    5.9370    1.0313    0.0000 N   0  0  0  0  0  0  0  0  0  0  0  0
    5.2224   -1.0313    0.0000 N   0  0  0  0  0  0  0  0  0  0  0  0
    6.6515    2.2688    0.0000 C   0  0  0  0  0  0  0  0  0  0  0  0
    4.5080   -2.2688    0.0000 C   0  0  0  0  0  0  0  0  0  0  0  0
    8.0804    3.0938    0.0000 C   0  0  0  0  0  0  0  0  0  0  0  0
    3.0791   -3.0938    0.0000 C   0  0  0  0  0  0  0  0  0  0  0  0
    6.9534    3.3958    0.0000 C   0  0  0  0  0  0  0  0  0  0  0  0
    7.7784    1.9668    0.0000 C   0  0  0  0  0  0  0  0  0  0  0  0
    3.3810   -1.9668    0.0000 C   0  0  0  0  0  0  0  0  0  0  0  0
    4.2060   -3.3958    0.0000 C   0  0  0  0  0  0  0  0  0  0  0  0
    6.6515    1.4438    0.0000 C   0  0  0  0  0  0  0  0  0  0  0  0
    4.5080   -1.4438    0.0000 C   0  0  0  0  0  0  0  0  0  0  0  0
    8.0804    3.9188    0.0000 C   0  0  0  0  0  0  0  0  0  0  0  0
    3.0791   -3.9188    0.0000 C   0  0  0  0  0  0  0  0  0  0  0  0
    6.1284    3.3958    0.0000 C   0  0  0  0  0  0  0  0  0  0  0  0
    8.6035    1.9668    0.0000 C   0  0  0  0  0  0  0  0  0  0  0  0
    2.5560   -1.9668    0.0000 C   0  0  0  0  0  0  0  0  0  0  0  0
    5.0310   -3.3958    0.0000 C   0  0  0  0  0  0  0  0  0  0  0  0
    8.7949    4.3313    0.0000 C   0  0  0  0  0  0  0  0  0  0  0  0
    2.3645   -4.3313    0.0000 C   0  0  0  0  0  0  0  0  0  0  0  0
    7.3659    4.3313    0.0000 C   0  0  0  0  0  0  0  0  0  0  0  0
    3.7935   -4.3313    0.0000 C   0  0  0  0  0  0  0  0  0  0  0  0
    5.9370    0.2063    0.0000 C   0  0  0  0  0  0  0  0  0  0  0  0
    5.2224   -0.2063    0.0000 C   0  0  0  0  0  0  0  0  0  0  0  0
    8.7949    5.1564    0.0000 C   0  0  0  0  0  0  0  0  0  0  0  0
    2.3645   -5.1564    0.0000 C   0  0  0  0  0  0  0  0  0  0  0  0
    7.3659    5.1564    0.0000 C   0  0  0  0  0  0  0  0  0  0  0  0
    3.7935   -5.1564    0.0000 C   0  0  0  0  0  0  0  0  0  0  0  0
    8.0804    5.5689    0.0000 C   0  0  0  0  0  0  0  0  0  0  0  0
    3.0791   -5.5689    0.0000 C   0  0  0  0  0  0  0  0  0  0  0  0
    0.0000    0.0000    0.0000 H   0  0  0  0  0  0  0  0  0  0  0  0
    0.0000    0.0000    0.0000 H   0  0  0  0  0  0  0  0  0  0  0  0
    0.0000    0.0000    0.0000 H   0  0  0  0  0  0  0  0  0  0  0  0
    0.0000    0.0000    0.0000 H   0  0  0  0  0  0  0  0  0  0  0  0
    0.0000    0.0000    0.0000 H   0  0  0  0  0  0  0  0  0  0  0  0
    0.0000    0.0000    0.0000 H   0  0  0  0  0  0  0  0  0  0  0  0
    0.0000    0.0000    0.0000 H   0  0  0  0  0  0  0  0  0  0  0  0
    0.0000    0.0000    0.0000 H   0  0  0  0  0  0  0  0  0  0  0  0
    0.0000    0.0000    0.0000 H   0  0  0  0  0  0  0  0  0  0  0  0
    0.0000    0.0000    0.0000 H   0  0  0  0  0  0  0  0  0  0  0  0
    0.0000    0.0000    0.0000 H   0  0  0  0  0  0  0  0  0  0  0  0
    0.0000    0.0000    0.0000 H   0  0  0  0  0  0  0  0  0  0  0  0
    0.0000    0.0000    0.0000 H   0  0  0  0  0  0  0  0  0  0  0  0
    0.0000    0.0000    0.0000 H   0  0  0  0  0  0  0  0  0  0  0  0
    0.0000    0.0000    0.0000 H   0  0  0  0  0  0  0  0  0  0  0  0
    0.0000    0.0000    0.0000 H   0  0  0  0  0  0  0  0  0  0  0  0
    0.0000    0.0000    0.0000 H   0  0  0  0  0  0  0  0  0  0  0  0
    0.0000    0.0000    0.0000 H   0  0  0  0  0  0  0  0  0  0  0  0
    0.0000    0.0000    0.0000 H   0  0  0  0  0  0  0  0  0  0  0  0
    0.0000    0.0000    0.0000 H   0  0  0  0  0  0  0  0  0  0  0  0
    0.0000    0.0000    0.0000 H   0  0  0  0  0  0  0  0  0  0  0  0
    0.0000    0.0000    0.0000 H   0  0  0  0  0  0  0  0  0  0  0  0
    0.0000    0.0000    0.0000 H   0  0  0  0  0  0  0  0  0  0  0  0
    0.0000    0.0000    0.0000 H   0  0  0  0  0  0  0  0  0  0  0  0
    0.0000    0.0000    0.0000 H   0  0  0  0  0  0  0  0  0  0  0  0
    0.0000    0.0000    0.0000 H   0  0  0  0  0  0  0  0  0  0  0  0
    0.0000    0.0000    0.0000 H   0  0  0  0  0  0  0  0  0  0  0  0
    0.0000    0.0000    0.0000 H   0  0  0  0  0  0  0  0  0  0  0  0
    0.0000    0.0000    0.0000 H   0  0  0  0  0  0  0  0  0  0  0  0
    0.0000    0.0000    0.0000 H   0  0  0  0  0  0  0  0  0  0  0  0
    0.0000    0.0000    0.0000 H   0  0  0  0  0  0  0  0  0  0  0  0
    0.0000    0.0000    0.0000 H   0  0  0  0  0  0  0  0  0  0  0  0
    0.0000    0.0000    0.0000 H   0  0  0  0  0  0  0  0  0  0  0  0
    0.0000    0.0000    0.0000 H   0  0  0  0  0  0  0  0  0  0  0  0
    0.0000    0.0000    0.0000 H   0  0  0  0  0  0  0  0  0  0  0  0
    0.0000    0.0000    0.0000 H   0  0  0  0  0  0  0  0  0  0  0  0
    0.0000    0.0000    0.0000 H   0  0  0  0  0  0  0  0  0  0  0  0
    0.0000    0.0000    0.0000 H   0  0  0  0  0  0  0  0  0  0  0  0
    0.0000    0.0000    0.0000 H   0  0  0  0  0  0  0  0  0  0  0  0
    0.0000    0.0000    0.0000 H   0  0  0  0  0  0  0  0  0  0  0  0
    0.0000    0.0000    0.0000 H   0  0  0  0  0  0  0  0  0  0  0  0
    0.0000    0.0000    0.0000 H   0  0  0  0  0  0  0  0  0  0  0  0
  1 25  1  0
  2 26  1  0
  3 29  2  0
  4 30  2  0
  5  9  1  0
  5 11  1  0
  5 13  1  0
  5 14  1  0
  6 10  1  0
  6 12  1  0
  6 15  1  0
  6 16  1  0
  7 17  1  0
  7 29  1  0
  8 18  1  0
  8 30  1  0
  9 17  1  0
 10 18  1  0
 11 19  1  0
 12 20  1  0
 13 21  1  0
 14 22  1  0
 15 23  1  0
 16 24  1  0
 19 25  2  0
 19 27  1  0
 20 26  2  0
 20 28  1  0
 25 31  1  0
 26 32  1  0
 27 33  2  0
 28 34  2  0
 29 30  1  0
 31 35  2  0
 32 36  2  0
 33 35  1  0
 34 36  1  0
  7 37  1  0
  8 38  1  0
  9 39  1  0
  9 40  1  0
 10 41  1  0
 10 42  1  0
 11 43  1  0
 11 44  1  0
 12 45  1  0
 12 46  1  0
 13 47  1  0
 13 48  1  0
 14 49  1  0
 14 50  1  0
 15 51  1  0
 15 52  1  0
 16 53  1  0
 16 54  1  0
 17 55  1  0
 17 56  1  0
 18 57  1  0
 18 58  1  0
 21 59  1  0
 21 60  1  0
 21 61  1  0
 22 62  1  0
 22 63  1  0
 22 64  1  0
 23 65  1  0
 23 66  1  0
 23 67  1  0
 24 68  1  0
 24 69  1  0
 24 70  1  0
 27 71  1  0
 28 72  1  0
 31 73  1  0
 32 74  1  0
 33 75  1  0
 34 76  1  0
 35 77  1  0
 36 78  1  0
M  CHG  2   5   1   6   1
M  END
>  <ALOGPS_LOGP>  (1) 
2.27

>  <ALOGPS_LOGS>  (1) 
-8.81

>  <ALOGPS_SOLUBILITY>  (1) 
9.42e-07 g/l

>  <DATABASE_ID>  (1) 
DB01122

>  <DATABASE_NAME>  (1) 
drugbank

>  <DRUGBANK_ID>  (1) 
DB01122

>  <DRUG_GROUPS>  (1) 
approved

>  <EXACT_MASS>  (1) 
536.268482022

>  <FORMULA>  (1) 
C28H42Cl2N4O2

>  <GENERIC_NAME>  (1) 
Ambenonium

>  <INCHI_IDENTIFIER>  (1) 
InChI=1S/C28H40Cl2N4O2/c1-5-33(6-2,21-23-13-9-11-15-25(23)29)19-17-31-27(35)28(36)32-18-20-34(7-3,8-4)22-24-14-10-12-16-26(24)30/h9-16H,5-8,17-22H2,1-4H3/p+2

>  <INCHI_KEY>  (1) 
OMHBPUNFVFNHJK-UHFFFAOYSA-P

>  <INTERNATIONAL_BRANDS>  (1) 
Mysuran; Mytelase

>  <JCHEM_ACCEPTOR_COUNT>  (1) 
2

>  <JCHEM_AVERAGE_POLARIZABILITY>  (1) 
59.983826034638525

>  <JCHEM_BIOAVAILABILITY>  (1) 
0

>  <JCHEM_DONOR_COUNT>  (1) 
2

>  <JCHEM_FORMAL_CHARGE>  (1) 
2

>  <JCHEM_GHOSE_FILTER>  (1) 
0

>  <JCHEM_IUPAC>  (1) 
[(2-chlorophenyl)methyl](2-{[(2-{[(2-chlorophenyl)methyl]diethylazaniumyl}ethyl)carbamoyl]formamido}ethyl)diethylazanium

>  <JCHEM_LOGP>  (1) 
-3.633401447610157

>  <JCHEM_MDDR_LIKE_RULE>  (1) 
0

>  <JCHEM_NUMBER_OF_RINGS>  (1) 
2

>  <JCHEM_PHYSIOLOGICAL_CHARGE>  (1) 
2

>  <JCHEM_PKA>  (1) 
16.48119147469844

>  <JCHEM_PKA_STRONGEST_ACIDIC>  (1) 
10.78387342350433

>  <JCHEM_PKA_STRONGEST_BASIC>  (1) 
-3.6154372428069315

>  <JCHEM_POLAR_SURFACE_AREA>  (1) 
58.2

>  <JCHEM_REFRACTIVITY>  (1) 
173.5709999999999

>  <JCHEM_ROTATABLE_BOND_COUNT>  (1) 
15

>  <JCHEM_RULE_OF_FIVE>  (1) 
0

>  <JCHEM_TRADITIONAL_IUPAC>  (1) 
ambenonium

>  <JCHEM_VEBER_RULE>  (1) 
0

>  <MOLECULAR_WEIGHT>  (1) 
537.565

>  <SALTS>  (1) 
Ambenonium chloride

>  <SECONDARY_ACCESSION_NUMBERS>  (1) 
APRD00771

>  <SMILES>  (1) 
CC[N+](CC)(CCNC(=O)C(=O)NCC[N+](CC)(CC)CC1=CC=CC=C1Cl)CC1=CC=CC=C1Cl

>  <SYNONYMS>  (1) 
Ambenonum

$$$$
