1123
     RDKit          2D

 27 29  0  0  0  0  0  0  0  0999 V2000
    4.8066    0.5507    0.0000 N   0  0  0  0  0  0  0  0  0  0  0  0
    7.6027    0.5698    0.0000 N   0  0  0  0  0  0  0  0  0  0  0  0
    2.0104    0.5698    0.0000 N   0  0  0  0  0  0  0  0  0  0  0  0
    5.4925   -0.6374    0.0000 C   0  0  0  0  0  0  0  0  0  0  0  0
    4.1206   -0.6374    0.0000 C   0  0  0  0  0  0  0  0  0  0  0  0
    5.4925    0.1547    0.0000 C   0  0  0  0  0  0  0  0  0  0  0  0
    4.1206    0.1547    0.0000 C   0  0  0  0  0  0  0  0  0  0  0  0
    4.8066   -1.0334    0.0000 C   0  0  0  0  0  0  0  0  0  0  0  0
    6.2005   -1.0609    0.0000 C   0  0  0  0  0  0  0  0  0  0  0  0
    3.4125   -1.0609    0.0000 C   0  0  0  0  0  0  0  0  0  0  0  0
    6.2005    0.5781    0.0000 C   0  0  0  0  0  0  0  0  0  0  0  0
    3.4125    0.5781    0.0000 C   0  0  0  0  0  0  0  0  0  0  0  0
    6.9183    0.1712    0.0000 C   0  0  0  0  0  0  0  0  0  0  0  0
    2.6948    0.1712    0.0000 C   0  0  0  0  0  0  0  0  0  0  0  0
    6.9183   -0.6539    0.0000 C   0  0  0  0  0  0  0  0  0  0  0  0
    2.6948   -0.6539    0.0000 C   0  0  0  0  0  0  0  0  0  0  0  0
    0.0000    0.0000    0.0000 H   0  0  0  0  0  0  0  0  0  0  0  0
    0.0000    0.0000    0.0000 H   0  0  0  0  0  0  0  0  0  0  0  0
    0.0000    0.0000    0.0000 H   0  0  0  0  0  0  0  0  0  0  0  0
    0.0000    0.0000    0.0000 H   0  0  0  0  0  0  0  0  0  0  0  0
    0.0000    0.0000    0.0000 H   0  0  0  0  0  0  0  0  0  0  0  0
    0.0000    0.0000    0.0000 H   0  0  0  0  0  0  0  0  0  0  0  0
    0.0000    0.0000    0.0000 H   0  0  0  0  0  0  0  0  0  0  0  0
    0.0000    0.0000    0.0000 H   0  0  0  0  0  0  0  0  0  0  0  0
    0.0000    0.0000    0.0000 H   0  0  0  0  0  0  0  0  0  0  0  0
    0.0000    0.0000    0.0000 H   0  0  0  0  0  0  0  0  0  0  0  0
    0.0000    0.0000    0.0000 H   0  0  0  0  0  0  0  0  0  0  0  0
  1  6  2  0
  1  7  1  0
  2 13  1  0
  3 14  1  0
  4  6  1  0
  4  8  2  0
  4  9  1  0
  5  7  2  0
  5  8  1  0
  5 10  1  0
  6 11  1  0
  7 12  1  0
  9 15  2  0
 10 16  2  0
 11 13  2  0
 12 14  2  0
 13 15  1  0
 14 16  1  0
  2 17  1  0
  2 18  1  0
  3 19  1  0
  3 20  1  0
  8 21  1  0
  9 22  1  0
 10 23  1  0
 11 24  1  0
 12 25  1  0
 15 26  1  0
 16 27  1  0
M  END
>  <ALOGPS_LOGP>  (1) 
2.10

>  <ALOGPS_LOGS>  (1) 
-3.30

>  <ALOGPS_SOLUBILITY>  (1) 
1.04e-01 g/l

>  <DATABASE_ID>  (1) 
DB01123

>  <DATABASE_NAME>  (1) 
drugbank

>  <DRUGBANK_ID>  (1) 
DB01123

>  <DRUG_GROUPS>  (1) 
approved

>  <EXACT_MASS>  (1) 
209.095297367

>  <FORMULA>  (1) 
C13H11N3

>  <GENERIC_NAME>  (1) 
Proflavine

>  <INCHI_IDENTIFIER>  (1) 
InChI=1S/C13H11N3/c14-10-3-1-8-5-9-2-4-11(15)7-13(9)16-12(8)6-10/h1-7H,14-15H2

>  <INCHI_KEY>  (1) 
WDVSHHCDHLJJJR-UHFFFAOYSA-N

>  <JCHEM_ACCEPTOR_COUNT>  (1) 
3

>  <JCHEM_AVERAGE_POLARIZABILITY>  (1) 
23.173774102856868

>  <JCHEM_BIOAVAILABILITY>  (1) 
1

>  <JCHEM_DONOR_COUNT>  (1) 
2

>  <JCHEM_FORMAL_CHARGE>  (1) 
0

>  <JCHEM_GHOSE_FILTER>  (1) 
1

>  <JCHEM_IUPAC>  (1) 
acridine-3,6-diamine

>  <JCHEM_LOGP>  (1) 
1.848375645666667

>  <JCHEM_MDDR_LIKE_RULE>  (1) 
0

>  <JCHEM_NUMBER_OF_RINGS>  (1) 
3

>  <JCHEM_PHYSIOLOGICAL_CHARGE>  (1) 
1

>  <JCHEM_PKA_STRONGEST_BASIC>  (1) 
8.321880956254631

>  <JCHEM_POLAR_SURFACE_AREA>  (1) 
64.92999999999999

>  <JCHEM_REFRACTIVITY>  (1) 
65.45830000000002

>  <JCHEM_ROTATABLE_BOND_COUNT>  (1) 
0

>  <JCHEM_RULE_OF_FIVE>  (1) 
1

>  <JCHEM_TRADITIONAL_IUPAC>  (1) 
proflavine

>  <JCHEM_VEBER_RULE>  (1) 
0

>  <MOLECULAR_WEIGHT>  (1) 
209.2465

>  <PRODUCTS>  (1) 
Kerr 100 Triple Dye Dispos-A; Perineze Triple Dye; Triple Dye

>  <SALTS>  (1) 
Proflavine hemisulfate

>  <SECONDARY_ACCESSION_NUMBERS>  (1) 
APRD00535

>  <SMILES>  (1) 
NC1=CC2=NC3=C(C=CC(N)=C3)C=C2C=C1

>  <SYNONYMS>  (1) 
2,8-Diaminoacridine; 3,6-acridinediamine; 3,6-diaminoacridine; Diaminoacridine; Proflavin

$$$$
