1624
     RDKit          2D

 52 55  0  0  0  0  0  0  0  0999 V2000
    6.7619   -1.8715    0.0000 Cl  0  0  0  0  0  0  0  0  0  0  0  0
    3.8495   -3.5415    0.0000 S   0  0  0  0  0  0  0  0  0  0  0  0
    8.1363    3.0585    0.0000 O   0  0  0  0  0  0  0  0  0  0  0  0
    5.2784    0.5835    0.0000 N   0  0  0  0  0  0  0  0  0  0  0  0
    6.7073    1.4085    0.0000 N   0  0  0  0  0  0  0  0  0  0  0  0
    5.2784    1.4085    0.0000 C   0  0  0  0  0  0  0  0  0  0  0  0
    5.9929    0.1710    0.0000 C   0  0  0  0  0  0  0  0  0  0  0  0
    5.9929    1.8210    0.0000 C   0  0  0  0  0  0  0  0  0  0  0  0
    6.7073    0.5835    0.0000 C   0  0  0  0  0  0  0  0  0  0  0  0
    4.5640    0.1710    0.0000 C   0  0  0  0  0  0  0  0  0  0  0  0
    7.4219    1.8210    0.0000 C   0  0  0  0  0  0  0  0  0  0  0  0
    4.5640   -0.6540    0.0000 C   0  0  0  0  0  0  0  0  0  0  0  0
    7.4219    2.6460    0.0000 C   0  0  0  0  0  0  0  0  0  0  0  0
    3.8495   -1.0665    0.0000 C   0  0  0  0  0  0  0  0  0  0  0  0
    3.8495   -1.8915    0.0000 C   0  0  0  0  0  0  0  0  0  0  0  0
    4.5640   -2.3040    0.0000 C   0  0  0  0  0  0  0  0  0  0  0  0
    3.1350   -2.3040    0.0000 C   0  0  0  0  0  0  0  0  0  0  0  0
    4.5640   -3.1290    0.0000 C   0  0  0  0  0  0  0  0  0  0  0  0
    3.1350   -3.1290    0.0000 C   0  0  0  0  0  0  0  0  0  0  0  0
    5.3015   -1.8629    0.0000 C   0  0  0  0  0  0  0  0  0  0  0  0
    2.3975   -1.8629    0.0000 C   0  0  0  0  0  0  0  0  0  0  0  0
    5.3015   -3.5700    0.0000 C   0  0  0  0  0  0  0  0  0  0  0  0
    2.3975   -3.5700    0.0000 C   0  0  0  0  0  0  0  0  0  0  0  0
    6.0490   -2.2868    0.0000 C   0  0  0  0  0  0  0  0  0  0  0  0
    1.6500   -2.2868    0.0000 C   0  0  0  0  0  0  0  0  0  0  0  0
    6.0490   -3.1461    0.0000 C   0  0  0  0  0  0  0  0  0  0  0  0
    1.6500   -3.1461    0.0000 C   0  0  0  0  0  0  0  0  0  0  0  0
    0.0000    0.0000    0.0000 H   0  0  0  0  0  0  0  0  0  0  0  0
    0.0000    0.0000    0.0000 H   0  0  0  0  0  0  0  0  0  0  0  0
    0.0000    0.0000    0.0000 H   0  0  0  0  0  0  0  0  0  0  0  0
    0.0000    0.0000    0.0000 H   0  0  0  0  0  0  0  0  0  0  0  0
    0.0000    0.0000    0.0000 H   0  0  0  0  0  0  0  0  0  0  0  0
    0.0000    0.0000    0.0000 H   0  0  0  0  0  0  0  0  0  0  0  0
    0.0000    0.0000    0.0000 H   0  0  0  0  0  0  0  0  0  0  0  0
    0.0000    0.0000    0.0000 H   0  0  0  0  0  0  0  0  0  0  0  0
    0.0000    0.0000    0.0000 H   0  0  0  0  0  0  0  0  0  0  0  0
    0.0000    0.0000    0.0000 H   0  0  0  0  0  0  0  0  0  0  0  0
    0.0000    0.0000    0.0000 H   0  0  0  0  0  0  0  0  0  0  0  0
    0.0000    0.0000    0.0000 H   0  0  0  0  0  0  0  0  0  0  0  0
    0.0000    0.0000    0.0000 H   0  0  0  0  0  0  0  0  0  0  0  0
    0.0000    0.0000    0.0000 H   0  0  0  0  0  0  0  0  0  0  0  0
    0.0000    0.0000    0.0000 H   0  0  0  0  0  0  0  0  0  0  0  0
    0.0000    0.0000    0.0000 H   0  0  0  0  0  0  0  0  0  0  0  0
    0.0000    0.0000    0.0000 H   0  0  0  0  0  0  0  0  0  0  0  0
    0.0000    0.0000    0.0000 H   0  0  0  0  0  0  0  0  0  0  0  0
    0.0000    0.0000    0.0000 H   0  0  0  0  0  0  0  0  0  0  0  0
    0.0000    0.0000    0.0000 H   0  0  0  0  0  0  0  0  0  0  0  0
    0.0000    0.0000    0.0000 H   0  0  0  0  0  0  0  0  0  0  0  0
    0.0000    0.0000    0.0000 H   0  0  0  0  0  0  0  0  0  0  0  0
    0.0000    0.0000    0.0000 H   0  0  0  0  0  0  0  0  0  0  0  0
    0.0000    0.0000    0.0000 H   0  0  0  0  0  0  0  0  0  0  0  0
    0.0000    0.0000    0.0000 H   0  0  0  0  0  0  0  0  0  0  0  0
  1 24  1  0
  2 18  1  0
  2 19  1  0
  3 13  1  0
  4  6  1  0
  4  7  1  0
  4 10  1  0
  5  8  1  0
  5  9  1  0
  5 11  1  0
  6  8  1  0
  7  9  1  0
 10 12  1  0
 11 13  1  0
 12 14  1  0
 14 15  2  0
 15 16  1  0
 15 17  1  0
 16 18  2  0
 16 20  1  0
 17 19  2  0
 17 21  1  0
 18 22  1  0
 19 23  1  0
 20 24  2  0
 21 25  2  0
 22 26  2  0
 23 27  2  0
 24 26  1  0
 25 27  1  0
  3 28  1  0
  6 29  1  0
  6 30  1  0
  7 31  1  0
  7 32  1  0
  8 33  1  0
  8 34  1  0
  9 35  1  0
  9 36  1  0
 10 37  1  0
 10 38  1  0
 11 39  1  0
 11 40  1  0
 12 41  1  0
 12 42  1  0
 13 43  1  0
 13 44  1  0
 14 45  1  0
 20 46  1  0
 21 47  1  0
 22 48  1  0
 23 49  1  0
 25 50  1  0
 26 51  1  0
 27 52  1  0
M  END
>  <ALOGPS_LOGP>  (1) 
4.46

>  <ALOGPS_LOGS>  (1) 
-5.19

>  <ALOGPS_SOLUBILITY>  (1) 
2.60e-03 g/l

>  <DATABASE_ID>  (1) 
DB01624

>  <DATABASE_NAME>  (1) 
drugbank

>  <DRUGBANK_ID>  (1) 
DB01624

>  <DRUG_GROUPS>  (1) 
approved; investigational

>  <EXACT_MASS>  (1) 
400.137611829

>  <FORMULA>  (1) 
C22H25ClN2OS

>  <GENERIC_NAME>  (1) 
Zuclopenthixol

>  <INCHI_IDENTIFIER>  (1) 
InChI=1S/C22H25ClN2OS/c23-17-7-8-22-20(16-17)18(19-4-1-2-6-21(19)27-22)5-3-9-24-10-12-25(13-11-24)14-15-26/h1-2,4-8,16,26H,3,9-15H2/b18-5-

>  <INCHI_KEY>  (1) 
WFPIAZLQTJBIFN-DVZOWYKESA-N

>  <INTERNATIONAL_BRANDS>  (1) 
Acuphase; Ciatyl-Z; Cisordinol; Clopixol

>  <JCHEM_ACCEPTOR_COUNT>  (1) 
3

>  <JCHEM_AVERAGE_POLARIZABILITY>  (1) 
45.28789200955396

>  <JCHEM_BIOAVAILABILITY>  (1) 
1

>  <JCHEM_DONOR_COUNT>  (1) 
1

>  <JCHEM_FORMAL_CHARGE>  (1) 
0

>  <JCHEM_GHOSE_FILTER>  (1) 
1

>  <JCHEM_IUPAC>  (1) 
2-(4-{3-[(9Z)-2-chloro-9H-thioxanthen-9-ylidene]propyl}piperazin-1-yl)ethan-1-ol

>  <JCHEM_LOGP>  (1) 
4.22298393

>  <JCHEM_MDDR_LIKE_RULE>  (1) 
0

>  <JCHEM_NUMBER_OF_RINGS>  (1) 
4

>  <JCHEM_PHYSIOLOGICAL_CHARGE>  (1) 
1

>  <JCHEM_PKA_STRONGEST_ACIDIC>  (1) 
15.59309817131956

>  <JCHEM_PKA_STRONGEST_BASIC>  (1) 
8.427567970053593

>  <JCHEM_POLAR_SURFACE_AREA>  (1) 
26.71

>  <JCHEM_REFRACTIVITY>  (1) 
127.00030000000002

>  <JCHEM_ROTATABLE_BOND_COUNT>  (1) 
5

>  <JCHEM_RULE_OF_FIVE>  (1) 
1

>  <JCHEM_TRADITIONAL_IUPAC>  (1) 
zuclopenthixol

>  <JCHEM_VEBER_RULE>  (1) 
1

>  <MOLECULAR_WEIGHT>  (1) 
400.965

>  <PRODUCTS>  (1) 
Clopixol - Tab 10mg; Clopixol - Tab 25mg; Clopixol - Tab 40mg; Clopixol Acuphase - Liq Im 50mg/ml; Clopixol Depot - Liq Im 200mg/ml; Clopixol Depot - Liq Im 500mg/ml; Clopixol Depot 200mg/ml; Clopixol Depot 500mg/ml; Clopixol Tablets 10mg; Clopixol Tablets 25mg; Clopixol Tablets 40mg; Clopixol-acuphase 50mg/ml

>  <SALTS>  (1) 
Zuclopenthixol acetate; Zuclopenthixol decanoate; Zuclopenthixol dihydrochloride

>  <SECONDARY_ACCESSION_NUMBERS>  (1) 
DB08919; DB08920

>  <SMILES>  (1) 
OCCN1CCN(CC\C=C2\C3=CC=CC=C3SC3=C2C=C(Cl)C=C3)CC1

>  <SYNONYMS>  (1) 
cis-Clopenthixol; Zuclopenthixol; Zuclopenthixolum; Zuclopentixol

$$$$
