1424
     RDKit          2D

 34 35  0  0  1  0  0  0  0  0999 V2000
    4.5542    0.1222    0.0000 O   0  0  0  0  0  0  0  0  0  0  0  0
    2.4347    0.3771    0.0000 N   0  0  0  0  0  0  0  0  0  0  0  0
    3.1021   -0.1078    0.0000 N   0  0  0  0  0  0  0  0  0  0  0  0
    3.9996    1.8292    0.0000 N   0  0  0  0  0  0  0  0  0  0  0  0
    2.6896    1.1617    0.0000 C   0  0  0  0  0  0  0  0  0  0  0  0
    3.5146    1.1617    0.0000 C   0  0  0  0  0  0  0  0  0  0  0  0
    3.7696    0.3771    0.0000 C   0  0  0  0  0  0  0  0  0  0  0  0
    3.1021   -0.9328    0.0000 C   0  0  0  0  0  0  0  0  0  0  0  0
    2.2047    1.8292    0.0000 C   0  0  0  0  0  0  0  0  0  0  0  0
    1.6500    0.1222    0.0000 C   0  0  0  0  0  0  0  0  0  0  0  0
    3.6640    2.5829    0.0000 C   0  0  0  0  0  0  0  0  0  0  0  0
    4.8201    1.7429    0.0000 C   0  0  0  0  0  0  0  0  0  0  0  0
    3.8166   -1.3454    0.0000 C   0  0  0  0  0  0  0  0  0  0  0  0
    2.3876   -1.3454    0.0000 C   0  0  0  0  0  0  0  0  0  0  0  0
    3.8166   -2.1704    0.0000 C   0  0  0  0  0  0  0  0  0  0  0  0
    2.3876   -2.1704    0.0000 C   0  0  0  0  0  0  0  0  0  0  0  0
    3.1021   -2.5829    0.0000 C   0  0  0  0  0  0  0  0  0  0  0  0
    0.0000    0.0000    0.0000 H   0  0  0  0  0  0  0  0  0  0  0  0
    0.0000    0.0000    0.0000 H   0  0  0  0  0  0  0  0  0  0  0  0
    0.0000    0.0000    0.0000 H   0  0  0  0  0  0  0  0  0  0  0  0
    0.0000    0.0000    0.0000 H   0  0  0  0  0  0  0  0  0  0  0  0
    0.0000    0.0000    0.0000 H   0  0  0  0  0  0  0  0  0  0  0  0
    0.0000    0.0000    0.0000 H   0  0  0  0  0  0  0  0  0  0  0  0
    0.0000    0.0000    0.0000 H   0  0  0  0  0  0  0  0  0  0  0  0
    0.0000    0.0000    0.0000 H   0  0  0  0  0  0  0  0  0  0  0  0
    0.0000    0.0000    0.0000 H   0  0  0  0  0  0  0  0  0  0  0  0
    0.0000    0.0000    0.0000 H   0  0  0  0  0  0  0  0  0  0  0  0
    0.0000    0.0000    0.0000 H   0  0  0  0  0  0  0  0  0  0  0  0
    0.0000    0.0000    0.0000 H   0  0  0  0  0  0  0  0  0  0  0  0
    0.0000    0.0000    0.0000 H   0  0  0  0  0  0  0  0  0  0  0  0
    0.0000    0.0000    0.0000 H   0  0  0  0  0  0  0  0  0  0  0  0
    0.0000    0.0000    0.0000 H   0  0  0  0  0  0  0  0  0  0  0  0
    0.0000    0.0000    0.0000 H   0  0  0  0  0  0  0  0  0  0  0  0
    0.0000    0.0000    0.0000 H   0  0  0  0  0  0  0  0  0  0  0  0
  1  7  2  0
  2  3  1  0
  2  5  1  0
  2 10  1  0
  3  7  1  0
  3  8  1  0
  4  6  1  0
  4 11  1  0
  4 12  1  0
  5  6  2  0
  5  9  1  0
  6  7  1  0
  8 13  2  0
  8 14  1  0
 13 15  1  0
 14 16  2  0
 15 17  2  0
 16 17  1  0
  9 18  1  0
  9 19  1  0
  9 20  1  0
 10 21  1  0
 10 22  1  0
 10 23  1  0
 11 24  1  0
 11 25  1  0
 11 26  1  0
 12 27  1  0
 12 28  1  0
 12 29  1  0
 13 30  1  0
 14 31  1  0
 15 32  1  0
 16 33  1  0
 17 34  1  0
M  END
>  <ALOGPS_LOGP>  (1) 
0.94

>  <ALOGPS_LOGS>  (1) 
-1.01

>  <ALOGPS_SOLUBILITY>  (1) 
2.25e+01 g/l

>  <DATABASE_ID>  (1) 
DB01424

>  <DATABASE_NAME>  (1) 
drugbank

>  <DRUGBANK_ID>  (1) 
DB01424

>  <DRUG_GROUPS>  (1) 
approved; withdrawn

>  <EXACT_MASS>  (1) 
231.137162181

>  <FORMULA>  (1) 
C13H17N3O

>  <GENERIC_NAME>  (1) 
Aminophenazone

>  <INCHI_IDENTIFIER>  (1) 
InChI=1S/C13H17N3O/c1-10-12(14(2)3)13(17)16(15(10)4)11-8-6-5-7-9-11/h5-9H,1-4H3

>  <INCHI_KEY>  (1) 
RMMXTBMQSGEXHJ-UHFFFAOYSA-N

>  <JCHEM_ACCEPTOR_COUNT>  (1) 
3

>  <JCHEM_AVERAGE_POLARIZABILITY>  (1) 
25.86589988753915

>  <JCHEM_BIOAVAILABILITY>  (1) 
1

>  <JCHEM_DONOR_COUNT>  (1) 
0

>  <JCHEM_FORMAL_CHARGE>  (1) 
0

>  <JCHEM_GHOSE_FILTER>  (1) 
1

>  <JCHEM_IUPAC>  (1) 
4-(dimethylamino)-1,5-dimethyl-2-phenyl-2,3-dihydro-1H-pyrazol-3-one

>  <JCHEM_LOGP>  (1) 
1.1505949156666666

>  <JCHEM_MDDR_LIKE_RULE>  (1) 
0

>  <JCHEM_NUMBER_OF_RINGS>  (1) 
2

>  <JCHEM_PHYSIOLOGICAL_CHARGE>  (1) 
0

>  <JCHEM_PKA_STRONGEST_BASIC>  (1) 
3.4650629529248964

>  <JCHEM_POLAR_SURFACE_AREA>  (1) 
26.790000000000006

>  <JCHEM_REFRACTIVITY>  (1) 
70.11100000000002

>  <JCHEM_ROTATABLE_BOND_COUNT>  (1) 
2

>  <JCHEM_RULE_OF_FIVE>  (1) 
1

>  <JCHEM_TRADITIONAL_IUPAC>  (1) 
aminophenazone

>  <JCHEM_VEBER_RULE>  (1) 
1

>  <MOLECULAR_WEIGHT>  (1) 
231.2936

>  <SMILES>  (1) 
CN(C)C1=C(C)N(C)N(C1=O)C1=CC=CC=C1

>  <SYNONYMS>  (1) 
4-Dimethylaminoantipyrine; Aminopyrine; Dipyrine

$$$$
