1408
     RDKit          2D

 55 55  0  0  1  0  0  0  0  0999 V2000
    3.7935    1.4991    0.0000 O   0  0  0  0  0  0  0  0  0  0  0  0
    3.0791   -1.3885    0.0000 O   0  0  0  0  0  0  0  0  0  0  0  0
    5.9370   -1.3885    0.0000 O   0  0  0  0  0  0  0  0  0  0  0  0
    3.7935   -2.6260    0.0000 O   0  0  0  0  0  0  0  0  0  0  0  0
    5.2224   -2.6260    0.0000 O   0  0  0  0  0  0  0  0  0  0  0  0
    5.2224    2.3241    0.0000 N   0  0  0  0  0  0  0  0  0  0  0  0
    2.3645   -2.6260    0.0000 N   0  0  0  0  0  0  0  0  0  0  0  0
    6.6515   -2.6260    0.0000 N   0  0  0  0  0  0  0  0  0  0  0  0
    5.9370    2.7366    0.0000 C   0  0  0  0  0  0  0  0  0  0  0  0
    5.2224    1.4991    0.0000 C   0  0  0  0  0  0  0  0  0  0  0  0
    4.5080    1.0865    0.0000 C   0  0  0  0  0  0  0  0  0  0  0  0
    6.3495    2.0221    0.0000 C   0  0  0  0  0  0  0  0  0  0  0  0
    5.5245    3.4511    0.0000 C   0  0  0  0  0  0  0  0  0  0  0  0
    6.6515    3.1491    0.0000 C   0  0  0  0  0  0  0  0  0  0  0  0
    4.5080    0.2615    0.0000 C   0  0  0  0  0  0  0  0  0  0  0  0
    5.2224   -0.1510    0.0000 C   0  0  0  0  0  0  0  0  0  0  0  0
    3.7935   -0.1510    0.0000 C   0  0  0  0  0  0  0  0  0  0  0  0
    3.7935   -0.9760    0.0000 C   0  0  0  0  0  0  0  0  0  0  0  0
    5.2224   -0.9760    0.0000 C   0  0  0  0  0  0  0  0  0  0  0  0
    4.5080   -1.3885    0.0000 C   0  0  0  0  0  0  0  0  0  0  0  0
    3.0791   -2.2135    0.0000 C   0  0  0  0  0  0  0  0  0  0  0  0
    5.9370   -2.2135    0.0000 C   0  0  0  0  0  0  0  0  0  0  0  0
    1.6500   -2.2135    0.0000 C   0  0  0  0  0  0  0  0  0  0  0  0
    2.3645   -3.4511    0.0000 C   0  0  0  0  0  0  0  0  0  0  0  0
    7.3659   -2.2135    0.0000 C   0  0  0  0  0  0  0  0  0  0  0  0
    6.6515   -3.4511    0.0000 C   0  0  0  0  0  0  0  0  0  0  0  0
    0.0000    0.0000    0.0000 H   0  0  0  0  0  0  0  0  0  0  0  0
    0.0000    0.0000    0.0000 H   0  0  0  0  0  0  0  0  0  0  0  0
    0.0000    0.0000    0.0000 H   0  0  0  0  0  0  0  0  0  0  0  0
    0.0000    0.0000    0.0000 H   0  0  0  0  0  0  0  0  0  0  0  0
    0.0000    0.0000    0.0000 H   0  0  0  0  0  0  0  0  0  0  0  0
    0.0000    0.0000    0.0000 H   0  0  0  0  0  0  0  0  0  0  0  0
    0.0000    0.0000    0.0000 H   0  0  0  0  0  0  0  0  0  0  0  0
    0.0000    0.0000    0.0000 H   0  0  0  0  0  0  0  0  0  0  0  0
    0.0000    0.0000    0.0000 H   0  0  0  0  0  0  0  0  0  0  0  0
    0.0000    0.0000    0.0000 H   0  0  0  0  0  0  0  0  0  0  0  0
    0.0000    0.0000    0.0000 H   0  0  0  0  0  0  0  0  0  0  0  0
    0.0000    0.0000    0.0000 H   0  0  0  0  0  0  0  0  0  0  0  0
    0.0000    0.0000    0.0000 H   0  0  0  0  0  0  0  0  0  0  0  0
    0.0000    0.0000    0.0000 H   0  0  0  0  0  0  0  0  0  0  0  0
    0.0000    0.0000    0.0000 H   0  0  0  0  0  0  0  0  0  0  0  0
    0.0000    0.0000    0.0000 H   0  0  0  0  0  0  0  0  0  0  0  0
    0.0000    0.0000    0.0000 H   0  0  0  0  0  0  0  0  0  0  0  0
    0.0000    0.0000    0.0000 H   0  0  0  0  0  0  0  0  0  0  0  0
    0.0000    0.0000    0.0000 H   0  0  0  0  0  0  0  0  0  0  0  0
    0.0000    0.0000    0.0000 H   0  0  0  0  0  0  0  0  0  0  0  0
    0.0000    0.0000    0.0000 H   0  0  0  0  0  0  0  0  0  0  0  0
    0.0000    0.0000    0.0000 H   0  0  0  0  0  0  0  0  0  0  0  0
    0.0000    0.0000    0.0000 H   0  0  0  0  0  0  0  0  0  0  0  0
    0.0000    0.0000    0.0000 H   0  0  0  0  0  0  0  0  0  0  0  0
    0.0000    0.0000    0.0000 H   0  0  0  0  0  0  0  0  0  0  0  0
    0.0000    0.0000    0.0000 H   0  0  0  0  0  0  0  0  0  0  0  0
    0.0000    0.0000    0.0000 H   0  0  0  0  0  0  0  0  0  0  0  0
    0.0000    0.0000    0.0000 H   0  0  0  0  0  0  0  0  0  0  0  0
    0.0000    0.0000    0.0000 H   0  0  0  0  0  0  0  0  0  0  0  0
  1 11  1  0
  2 18  1  0
  2 21  1  0
  3 19  1  0
  3 22  1  0
  4 21  2  0
  5 22  2  0
  6  9  1  0
  6 10  1  0
  7 21  1  0
  7 23  1  0
  7 24  1  0
  8 22  1  0
  8 25  1  0
  8 26  1  0
  9 12  1  0
  9 13  1  0
  9 14  1  0
 10 11  1  0
 11 15  1  0
 15 16  2  0
 15 17  1  0
 16 19  1  0
 17 18  2  0
 18 20  1  0
 19 20  2  0
  1 27  1  0
  6 28  1  0
 10 29  1  0
 10 30  1  0
 11 31  1  0
 12 32  1  0
 12 33  1  0
 12 34  1  0
 13 35  1  0
 13 36  1  0
 13 37  1  0
 14 38  1  0
 14 39  1  0
 14 40  1  0
 16 41  1  0
 17 42  1  0
 20 43  1  0
 23 44  1  0
 23 45  1  0
 23 46  1  0
 24 47  1  0
 24 48  1  0
 24 49  1  0
 25 50  1  0
 25 51  1  0
 25 52  1  0
 26 53  1  0
 26 54  1  0
 26 55  1  0
M  END
>  <ALOGPS_LOGP>  (1) 
1.69

>  <ALOGPS_LOGS>  (1) 
-2.89

>  <ALOGPS_SOLUBILITY>  (1) 
4.69e-01 g/l

>  <DATABASE_ID>  (1) 
DB01408

>  <DATABASE_NAME>  (1) 
drugbank

>  <DRUGBANK_ID>  (1) 
DB01408

>  <DRUG_GROUPS>  (1) 
approved; investigational

>  <EXACT_MASS>  (1) 
367.210721053

>  <FORMULA>  (1) 
C18H29N3O5

>  <GENERIC_NAME>  (1) 
Bambuterol

>  <INCHI_IDENTIFIER>  (1) 
InChI=1S/C18H29N3O5/c1-18(2,3)19-11-15(22)12-8-13(25-16(23)20(4)5)10-14(9-12)26-17(24)21(6)7/h8-10,15,19,22H,11H2,1-7H3

>  <INCHI_KEY>  (1) 
ANZXOIAKUNOVQU-UHFFFAOYSA-N

>  <INTERNATIONAL_BRANDS>  (1) 
Bambec; Oxeol

>  <JCHEM_ACCEPTOR_COUNT>  (1) 
4

>  <JCHEM_AVERAGE_POLARIZABILITY>  (1) 
40.74381028645164

>  <JCHEM_BIOAVAILABILITY>  (1) 
1

>  <JCHEM_DONOR_COUNT>  (1) 
2

>  <JCHEM_FORMAL_CHARGE>  (1) 
0

>  <JCHEM_GHOSE_FILTER>  (1) 
1

>  <JCHEM_IUPAC>  (1) 
3-[2-(tert-butylamino)-1-hydroxyethyl]-5-[(dimethylcarbamoyl)oxy]phenyl N,N-dimethylcarbamate

>  <JCHEM_LOGP>  (1) 
1.3973544953333334

>  <JCHEM_MDDR_LIKE_RULE>  (1) 
0

>  <JCHEM_NUMBER_OF_RINGS>  (1) 
1

>  <JCHEM_PHYSIOLOGICAL_CHARGE>  (1) 
1

>  <JCHEM_PKA_STRONGEST_ACIDIC>  (1) 
13.909501783442678

>  <JCHEM_PKA_STRONGEST_BASIC>  (1) 
9.522639831000232

>  <JCHEM_POLAR_SURFACE_AREA>  (1) 
91.33999999999999

>  <JCHEM_REFRACTIVITY>  (1) 
98.2791

>  <JCHEM_ROTATABLE_BOND_COUNT>  (1) 
8

>  <JCHEM_RULE_OF_FIVE>  (1) 
1

>  <JCHEM_TRADITIONAL_IUPAC>  (1) 
bambuterol

>  <JCHEM_VEBER_RULE>  (1) 
0

>  <MOLECULAR_WEIGHT>  (1) 
367.44

>  <SALTS>  (1) 
Bambuterol hydrochloride

>  <SMILES>  (1) 
CN(C)C(=O)OC1=CC(=CC(OC(=O)N(C)C)=C1)C(O)CNC(C)(C)C

>  <SYNONYMS>  (1) 
(±)-5-(2-(tert-butylamino)-1-hydroxyethyl)-m-phenylene bis(dimethylcarbamate); bambutérol; Bambuterol; Bambuterolum

$$$$
