
     RDKit          2D

 93 99  0  0  1  0  0  0  0  0999 V2000
    3.5556    9.2855    0.0000 C   0  0  0  0  0  0  0  0  0  0  0  0
    5.8677   10.9653    0.0000 C   0  0  0  0  0  0  0  0  0  0  0  0
    3.8912   10.0391    0.0000 C   0  0  0  0  0  0  0  0  0  0  0  0
    7.2310   -4.6945    0.0000 C   0  0  0  0  0  0  0  0  0  0  0  0
    6.3235    6.1259    0.0000 C   0  0  0  0  0  0  0  0  0  0  0  0
    4.8946    6.1259    0.0000 C   0  0  0  0  0  0  0  0  0  0  0  0
    6.3235    6.9509    0.0000 C   0  0  0  0  0  0  0  0  0  0  0  0
    4.8946    6.9509    0.0000 C   0  0  0  0  0  0  0  0  0  0  0  0
    4.8946    2.0009    0.0000 C   0  0  0  0  0  0  0  0  0  0  0  0
    6.3235    2.0009    0.0000 C   0  0  0  0  0  0  0  0  0  0  0  0
    4.8946    1.1759    0.0000 C   0  0  0  0  0  0  0  0  0  0  0  0
    6.3235    1.1759    0.0000 C   0  0  0  0  0  0  0  0  0  0  0  0
    7.3172   -3.8741    0.0000 C   0  0  0  0  0  0  0  0  0  0  0  0
    4.8946    4.4759    0.0000 C   0  0  0  0  0  0  0  0  0  0  0  0
    6.3235    4.4759    0.0000 C   0  0  0  0  0  0  0  0  0  0  0  0
    4.8946    3.6509    0.0000 C   0  0  0  0  0  0  0  0  0  0  0  0
    6.3235    3.6509    0.0000 C   0  0  0  0  0  0  0  0  0  0  0  0
    5.8099   -4.5452    0.0000 C   0  0  0  0  0  0  0  0  0  0  0  0
    6.9910   -1.7840    0.0000 C   0  0  0  0  0  0  0  0  0  0  0  0
    6.3235   -0.4741    0.0000 C   0  0  0  0  0  0  0  0  0  0  0  0
    5.6561   -1.7840    0.0000 C   0  0  0  0  0  0  0  0  0  0  0  0
    7.5430   -2.7402    0.0000 C   0  0  0  0  0  0  0  0  0  0  0  0
    9.2511   -1.4596    0.0000 C   0  0  0  0  0  0  0  0  0  0  0  0
    7.9235   -1.3201    0.0000 C   0  0  0  0  0  0  0  0  0  0  0  0
    6.2765    8.6733    0.0000 C   0  0  0  0  0  0  0  0  0  0  0  0
    5.0472   10.8791    0.0000 C   0  0  0  0  0  0  0  0  0  0  0  0
    6.3235   -1.2991    0.0000 C   0  0  0  0  0  0  0  0  0  0  0  0
    6.4773   -5.0301    0.0000 C   0  0  0  0  0  0  0  0  0  0  0  0
    5.6091    5.7134    0.0000 C   0  0  0  0  0  0  0  0  0  0  0  0
    5.6091    2.4134    0.0000 C   0  0  0  0  0  0  0  0  0  0  0  0
    5.6091    7.3634    0.0000 C   0  0  0  0  0  0  0  0  0  0  0  0
    5.6091    0.7634    0.0000 C   0  0  0  0  0  0  0  0  0  0  0  0
    6.6498   -3.3891    0.0000 C   0  0  0  0  0  0  0  0  0  0  0  0
    5.8961   -3.7247    0.0000 C   0  0  0  0  0  0  0  0  0  0  0  0
    4.7116   10.1254    0.0000 C   0  0  0  0  0  0  0  0  0  0  0  0
    4.9416    8.6733    0.0000 C   0  0  0  0  0  0  0  0  0  0  0  0
    6.7360   -2.5687    0.0000 C   0  0  0  0  0  0  0  0  0  0  0  0
    6.3911   -5.8506    0.0000 F   0  0  0  0  0  0  0  0  0  0  0  0
    5.2287   -3.2398    0.0000 F   0  0  0  0  0  0  0  0  0  0  0  0
    8.6380   -0.9076    0.0000 N   0  0  0  0  0  0  0  0  0  0  0  0
    8.9155   -2.2133    0.0000 N   0  0  0  0  0  0  0  0  0  0  0  0
    6.0216    9.4579    0.0000 N   0  0  0  0  0  0  0  0  0  0  0  0
    5.6091    4.8884    0.0000 N   0  0  0  0  0  0  0  0  0  0  0  0
    5.6091    3.2384    0.0000 N   0  0  0  0  0  0  0  0  0  0  0  0
    8.0950   -2.1271    0.0000 N   0  0  0  0  0  0  0  0  0  0  0  0
    5.6091    8.1884    0.0000 N   0  0  0  0  0  0  0  0  0  0  0  0
    5.1966    9.4579    0.0000 N   0  0  0  0  0  0  0  0  0  0  0  0
    4.5623   11.5465    0.0000 O   0  0  0  0  0  0  0  0  0  0  0  0
    4.1570    8.4184    0.0000 O   0  0  0  0  0  0  0  0  0  0  0  0
    5.6091   -0.0616    0.0000 O   0  0  0  0  0  0  0  0  0  0  0  0
    5.9110   -2.5687    0.0000 O   0  0  0  0  0  0  0  0  0  0  0  0
    0.0000    0.0000    0.0000 H   0  0  0  0  0  0  0  0  0  0  0  0
    0.0000    0.0000    0.0000 H   0  0  0  0  0  0  0  0  0  0  0  0
    0.0000    0.0000    0.0000 H   0  0  0  0  0  0  0  0  0  0  0  0
    0.0000    0.0000    0.0000 H   0  0  0  0  0  0  0  0  0  0  0  0
    0.0000    0.0000    0.0000 H   0  0  0  0  0  0  0  0  0  0  0  0
    0.0000    0.0000    0.0000 H   0  0  0  0  0  0  0  0  0  0  0  0
    0.0000    0.0000    0.0000 H   0  0  0  0  0  0  0  0  0  0  0  0
    0.0000    0.0000    0.0000 H   0  0  0  0  0  0  0  0  0  0  0  0
    0.0000    0.0000    0.0000 H   0  0  0  0  0  0  0  0  0  0  0  0
    0.0000    0.0000    0.0000 H   0  0  0  0  0  0  0  0  0  0  0  0
    0.0000    0.0000    0.0000 H   0  0  0  0  0  0  0  0  0  0  0  0
    0.0000    0.0000    0.0000 H   0  0  0  0  0  0  0  0  0  0  0  0
    0.0000    0.0000    0.0000 H   0  0  0  0  0  0  0  0  0  0  0  0
    0.0000    0.0000    0.0000 H   0  0  0  0  0  0  0  0  0  0  0  0
    0.0000    0.0000    0.0000 H   0  0  0  0  0  0  0  0  0  0  0  0
    0.0000    0.0000    0.0000 H   0  0  0  0  0  0  0  0  0  0  0  0
    0.0000    0.0000    0.0000 H   0  0  0  0  0  0  0  0  0  0  0  0
    0.0000    0.0000    0.0000 H   0  0  0  0  0  0  0  0  0  0  0  0
    0.0000    0.0000    0.0000 H   0  0  0  0  0  0  0  0  0  0  0  0
    0.0000    0.0000    0.0000 H   0  0  0  0  0  0  0  0  0  0  0  0
    0.0000    0.0000    0.0000 H   0  0  0  0  0  0  0  0  0  0  0  0
    0.0000    0.0000    0.0000 H   0  0  0  0  0  0  0  0  0  0  0  0
    0.0000    0.0000    0.0000 H   0  0  0  0  0  0  0  0  0  0  0  0
    0.0000    0.0000    0.0000 H   0  0  0  0  0  0  0  0  0  0  0  0
    0.0000    0.0000    0.0000 H   0  0  0  0  0  0  0  0  0  0  0  0
    0.0000    0.0000    0.0000 H   0  0  0  0  0  0  0  0  0  0  0  0
    0.0000    0.0000    0.0000 H   0  0  0  0  0  0  0  0  0  0  0  0
    0.0000    0.0000    0.0000 H   0  0  0  0  0  0  0  0  0  0  0  0
    0.0000    0.0000    0.0000 H   0  0  0  0  0  0  0  0  0  0  0  0
    0.0000    0.0000    0.0000 H   0  0  0  0  0  0  0  0  0  0  0  0
    0.0000    0.0000    0.0000 H   0  0  0  0  0  0  0  0  0  0  0  0
    0.0000    0.0000    0.0000 H   0  0  0  0  0  0  0  0  0  0  0  0
    0.0000    0.0000    0.0000 H   0  0  0  0  0  0  0  0  0  0  0  0
    0.0000    0.0000    0.0000 H   0  0  0  0  0  0  0  0  0  0  0  0
    0.0000    0.0000    0.0000 H   0  0  0  0  0  0  0  0  0  0  0  0
    0.0000    0.0000    0.0000 H   0  0  0  0  0  0  0  0  0  0  0  0
    0.0000    0.0000    0.0000 H   0  0  0  0  0  0  0  0  0  0  0  0
    0.0000    0.0000    0.0000 H   0  0  0  0  0  0  0  0  0  0  0  0
    0.0000    0.0000    0.0000 H   0  0  0  0  0  0  0  0  0  0  0  0
    0.0000    0.0000    0.0000 H   0  0  0  0  0  0  0  0  0  0  0  0
    0.0000    0.0000    0.0000 H   0  0  0  0  0  0  0  0  0  0  0  0
    0.0000    0.0000    0.0000 H   0  0  0  0  0  0  0  0  0  0  0  0
  3  1  1  0
  7  5  2  0
  8  6  1  0
 11  9  2  0
 12 10  1  0
 13  4  2  0
 16 14  1  0
 17 15  1  0
 26  2  1  6
 27 19  1  0
 27 20  1  1
 27 21  1  0
 28  4  1  0
 28 18  2  0
 29  5  1  0
 29  6  2  0
 30  9  1  0
 30 10  2  0
 31  7  1  0
 31  8  2  0
 32 11  1  0
 32 12  2  0
 33 13  1  0
 34 18  1  0
 34 33  2  0
 35  3  1  1
 35 26  1  0
 37 19  1  0
 37 22  1  1
 37 33  1  0
 38 28  1  0
 39 34  1  0
 40 23  1  0
 40 24  2  0
 41 23  2  0
 42 25  2  0
 43 14  1  0
 43 15  1  0
 43 29  1  0
 44 16  1  0
 44 17  1  0
 44 30  1  0
 45 22  1  0
 45 24  1  0
 45 41  1  0
 46 25  1  0
 46 31  1  0
 46 36  1  0
 35 47  1  0
 47 36  1  0
 47 42  1  0
 26 48  1  0
 49 36  2  0
 50 20  1  0
 50 32  1  0
 51 21  1  0
 51 37  1  0
  1 52  1  0
  1 53  1  0
  1 54  1  0
  2 55  1  0
  2 56  1  0
  2 57  1  0
  3 58  1  0
  3 59  1  0
  4 60  1  0
  5 61  1  0
  6 62  1  0
  7 63  1  0
  8 64  1  0
  9 65  1  0
 10 66  1  0
 11 67  1  0
 12 68  1  0
 13 69  1  0
 14 70  1  0
 14 71  1  0
 15 72  1  0
 15 73  1  0
 16 74  1  0
 16 75  1  0
 17 76  1  0
 17 77  1  0
 18 78  1  0
 19 79  1  0
 19 80  1  0
 20 81  1  0
 20 82  1  0
 21 83  1  0
 21 84  1  0
 22 85  1  0
 22 86  1  0
 23 87  1  0
 24 88  1  0
 25 89  1  0
 26 90  1  0
 27 91  1  0
 35 92  1  0
 48 93  1  0
M  END
>  <ALOGPS_LOGP>  (1) 
4.71

>  <ALOGPS_LOGS>  (1) 
-4.77

>  <ALOGPS_SOLUBILITY>  (1) 
1.20e-02 g/l

>  <DATABASE_ID>  (1) 
DB01263

>  <DATABASE_NAME>  (1) 
drugbank

>  <DRUGBANK_ID>  (1) 
DB01263

>  <DRUG_GROUPS>  (1) 
approved; investigational; vet_approved

>  <EXACT_MASS>  (1) 
700.329708282

>  <FORMULA>  (1) 
C37H42F2N8O4

>  <GENERIC_NAME>  (1) 
Posaconazole

>  <INCHI_IDENTIFIER>  (1) 
InChI=1S/C37H42F2N8O4/c1-3-35(26(2)48)47-36(49)46(25-42-47)31-7-5-29(6-8-31)43-14-16-44(17-15-43)30-9-11-32(12-10-30)50-20-27-19-37(51-21-27,22-45-24-40-23-41-45)33-13-4-28(38)18-34(33)39/h4-13,18,23-27,35,48H,3,14-17,19-22H2,1-2H3/t26-,27+,35-,37-/m0/s1

>  <INCHI_KEY>  (1) 
RAGOYPUPXAKGKH-XAKZXMRKSA-N

>  <JCHEM_ACCEPTOR_COUNT>  (1) 
9

>  <JCHEM_AVERAGE_POLARIZABILITY>  (1) 
73.83042930723752

>  <JCHEM_BIOAVAILABILITY>  (1) 
0

>  <JCHEM_DONOR_COUNT>  (1) 
1

>  <JCHEM_FORMAL_CHARGE>  (1) 
0

>  <JCHEM_GHOSE_FILTER>  (1) 
0

>  <JCHEM_IUPAC>  (1) 
4-{4-[4-(4-{[(3R,5R)-5-(2,4-difluorophenyl)-5-(1H-1,2,4-triazol-1-ylmethyl)oxolan-3-yl]methoxy}phenyl)piperazin-1-yl]phenyl}-1-[(2S,3S)-2-hydroxypentan-3-yl]-4,5-dihydro-1H-1,2,4-triazol-5-one

>  <JCHEM_LOGP>  (1) 
5.406185237999999

>  <JCHEM_MDDR_LIKE_RULE>  (1) 
1

>  <JCHEM_NUMBER_OF_RINGS>  (1) 
7

>  <JCHEM_PHYSIOLOGICAL_CHARGE>  (1) 
0

>  <JCHEM_PKA_STRONGEST_ACIDIC>  (1) 
14.826501017537158

>  <JCHEM_PKA_STRONGEST_BASIC>  (1) 
3.9297565284913887

>  <JCHEM_POLAR_SURFACE_AREA>  (1) 
111.79000000000002

>  <JCHEM_REFRACTIVITY>  (1) 
200.70579999999995

>  <JCHEM_ROTATABLE_BOND_COUNT>  (1) 
12

>  <JCHEM_RULE_OF_FIVE>  (1) 
0

>  <JCHEM_TRADITIONAL_IUPAC>  (1) 
posaconazole

>  <JCHEM_VEBER_RULE>  (1) 
0

>  <MOLECULAR_WEIGHT>  (1) 
700.7774

>  <PRODUCTS>  (1) 
Noxafil; Posaconazole Sp; Posanol

>  <SMILES>  (1) 
[H][C@@](C)(O)[C@]([H])(CC)N1N=CN(C1=O)C1=CC=C(C=C1)N1CCN(CC1)C1=CC=C(OC[C@]2([H])CO[C@](CN3C=NC=N3)(C2)C2=C(F)C=C(F)C=C2)C=C1

$$$$
