1235
     RDKit          2D

 25 25  0  0  1  0  0  0  0  0999 V2000
    2.0930   -1.7779    0.0000 O   0  0  0  0  0  0  0  0  0  0  0  0
    4.9509    2.3472    0.0000 O   0  0  0  0  0  0  0  0  0  0  0  0
    3.5220   -2.6029    0.0000 O   0  0  0  0  0  0  0  0  0  0  0  0
    3.5220    2.3472    0.0000 O   0  0  0  0  0  0  0  0  0  0  0  0
    4.9509    0.6971    0.0000 N   0  0  0  0  0  0  0  0  0  0  0  0
    3.5220    0.6971    0.0000 C   0  0  0  0  0  0  0  0  0  0  0  0
    4.2365    1.1096    0.0000 C   0  0  0  0  0  0  0  0  0  0  0  0
    3.5220   -0.1279    0.0000 C   0  0  0  0  0  0  0  0  0  0  0  0
    2.8075   -0.5404    0.0000 C   0  0  0  0  0  0  0  0  0  0  0  0
    4.2365   -0.5404    0.0000 C   0  0  0  0  0  0  0  0  0  0  0  0
    2.8075   -1.3654    0.0000 C   0  0  0  0  0  0  0  0  0  0  0  0
    4.2365    1.9347    0.0000 C   0  0  0  0  0  0  0  0  0  0  0  0
    4.2365   -1.3654    0.0000 C   0  0  0  0  0  0  0  0  0  0  0  0
    3.5220   -1.7779    0.0000 C   0  0  0  0  0  0  0  0  0  0  0  0
    0.0000    0.0000    0.0000 H   0  0  0  0  0  0  0  0  0  0  0  0
    0.0000    0.0000    0.0000 H   0  0  0  0  0  0  0  0  0  0  0  0
    0.0000    0.0000    0.0000 H   0  0  0  0  0  0  0  0  0  0  0  0
    0.0000    0.0000    0.0000 H   0  0  0  0  0  0  0  0  0  0  0  0
    0.0000    0.0000    0.0000 H   0  0  0  0  0  0  0  0  0  0  0  0
    0.0000    0.0000    0.0000 H   0  0  0  0  0  0  0  0  0  0  0  0
    0.0000    0.0000    0.0000 H   0  0  0  0  0  0  0  0  0  0  0  0
    0.0000    0.0000    0.0000 H   0  0  0  0  0  0  0  0  0  0  0  0
    0.0000    0.0000    0.0000 H   0  0  0  0  0  0  0  0  0  0  0  0
    0.0000    0.0000    0.0000 H   0  0  0  0  0  0  0  0  0  0  0  0
    0.0000    0.0000    0.0000 H   0  0  0  0  0  0  0  0  0  0  0  0
  1 11  1  0
  2 12  1  0
  3 14  1  0
  4 12  2  0
  7  5  1  6
  6  7  1  0
  6  8  1  0
  7 12  1  0
  8  9  2  0
  8 10  1  0
  9 11  1  0
 10 13  2  0
 11 14  2  0
 13 14  1  0
  1 15  1  0
  2 16  1  0
  3 17  1  0
  5 18  1  0
  5 19  1  0
  6 20  1  0
  6 21  1  0
  7 22  1  0
  9 23  1  0
 10 24  1  0
 13 25  1  0
M  END
>  <ALOGPS_LOGP>  (1) 
-2.32

>  <ALOGPS_LOGS>  (1) 
-1.78

>  <ALOGPS_SOLUBILITY>  (1) 
3.30e+00 g/l

>  <DATABASE_ID>  (1) 
DB01235

>  <DATABASE_NAME>  (1) 
drugbank

>  <DRUGBANK_ID>  (1) 
DB01235

>  <DRUG_GROUPS>  (1) 
approved

>  <EXACT_MASS>  (1) 
197.068807845

>  <FORMULA>  (1) 
C9H11NO4

>  <GENERIC_NAME>  (1) 
Levodopa

>  <INCHI_IDENTIFIER>  (1) 
InChI=1S/C9H11NO4/c10-6(9(13)14)3-5-1-2-7(11)8(12)4-5/h1-2,4,6,11-12H,3,10H2,(H,13,14)/t6-/m0/s1

>  <INCHI_KEY>  (1) 
WTDRDQBEARUVNC-LURJTMIESA-N

>  <INTERNATIONAL_BRANDS>  (1) 
Bidopal; Dopar; Doparl; Dopasol; Dopaston

>  <JCHEM_ACCEPTOR_COUNT>  (1) 
5

>  <JCHEM_AVERAGE_POLARIZABILITY>  (1) 
18.909870446686448

>  <JCHEM_BIOAVAILABILITY>  (1) 
1

>  <JCHEM_DONOR_COUNT>  (1) 
4

>  <JCHEM_FORMAL_CHARGE>  (1) 
0

>  <JCHEM_GHOSE_FILTER>  (1) 
0

>  <JCHEM_IUPAC>  (1) 
(2S)-2-amino-3-(3,4-dihydroxyphenyl)propanoic acid

>  <JCHEM_LOGP>  (1) 
-1.7921814507627933

>  <JCHEM_MDDR_LIKE_RULE>  (1) 
0

>  <JCHEM_NUMBER_OF_RINGS>  (1) 
1

>  <JCHEM_PHYSIOLOGICAL_CHARGE>  (1) 
0

>  <JCHEM_PKA>  (1) 
9.686049362161093

>  <JCHEM_PKA_STRONGEST_ACIDIC>  (1) 
1.650696949850563

>  <JCHEM_PKA_STRONGEST_BASIC>  (1) 
9.055027392905787

>  <JCHEM_POLAR_SURFACE_AREA>  (1) 
103.77999999999999

>  <JCHEM_REFRACTIVITY>  (1) 
49.07810000000001

>  <JCHEM_ROTATABLE_BOND_COUNT>  (1) 
3

>  <JCHEM_RULE_OF_FIVE>  (1) 
1

>  <JCHEM_TRADITIONAL_IUPAC>  (1) 
levodopa

>  <JCHEM_VEBER_RULE>  (1) 
0

>  <MOLECULAR_WEIGHT>  (1) 
197.1879

>  <PRODUCTS>  (1) 
Apo-levocarb - Tab 10mg/100mg; Apo-levocarb - Tab 25mg/250mg; Apo-levocarb CR; Apo-levocarb-tab 25mg/100mg; Carbidopa and Levodopa; Carbidopa and levodopa; Carbidopa, Levodopa and Entacapone; Carbidopa, Levodopa, and Entacapone; Carbidopa, levodopa and entacapone; Dom-levo-carbidopa; Duodopa; Duopa; Mint-levocarb; Nu-levocarb - Tab 10mg/100mg; Nu-levocarb - Tab 25 Mg/100 mg; Nu-levocarb - Tablets 25 Mg/250 mg; Numient; PMS-levocarb CR; Parcopa; Pro-lecarb-100/10 - Tab; Pro-lecarb-100/25 - Tab; Pro-levocarb - 100/25; Prolopa Cap 100-25; Prolopa Cap 200-50; Prolopa Cap 50-12.5; Ratio-levodopa/carbidopa; Rytary; Sinemet; Sinemet 100/10; Sinemet 100/25; Sinemet 250/25; Sinemet CR; Sinemet CR 100/25; Sinemet CR 200/50; Stalevo; Teva-levocarbidopa

>  <SECONDARY_ACCESSION_NUMBERS>  (1) 
APRD00309; EXPT01107

>  <SMILES>  (1) 
N[C@@H](CC1=CC(O)=C(O)C=C1)C(O)=O

>  <SYNONYMS>  (1) 
(−)-3-(3,4-dihydroxyphenyl)-L-alanine; (−)-dopa; 3-Hydroxy-L-tyrosine; 3,4-Dihydroxy-L-phenylalanine; Dihydroxy-L-phenylalanine; L-3,4-dihydroxyphenylalanine; L-beta-(3,4-Dihydroxyphenyl)alanine; L-DOPA; Levodopum; β-(3,4-dihydroxyphenyl)-L-alanine; β-(3,4-dihydroxyphenyl)alanine

$$$$
