1029
     RDKit          2D

 60 64  0  0  0  0  0  0  0  0999 V2000
    2.6582   -2.3648    0.0000 O   0  0  0  0  0  0  0  0  0  0  0  0
    4.7777   -2.1099    0.0000 N   0  0  0  0  0  0  0  0  0  0  0  0
    3.6977   -1.3252    0.0000 N   0  0  0  0  0  0  0  0  0  0  0  0
    2.8371    2.2237    0.0000 N   0  0  0  0  0  0  0  0  0  0  0  0
    2.6976    3.5512    0.0000 N   0  0  0  0  0  0  0  0  0  0  0  0
    2.0301    2.3952    0.0000 N   0  0  0  0  0  0  0  0  0  0  0  0
    1.9439    3.2157    0.0000 N   0  0  0  0  0  0  0  0  0  0  0  0
    4.1102   -2.5947    0.0000 C   0  0  0  0  0  0  0  0  0  0  0  0
    4.7777   -3.0797    0.0000 C   0  0  0  0  0  0  0  0  0  0  0  0
    3.4427   -3.0797    0.0000 C   0  0  0  0  0  0  0  0  0  0  0  0
    4.5227   -3.8643    0.0000 C   0  0  0  0  0  0  0  0  0  0  0  0
    3.6977   -3.8643    0.0000 C   0  0  0  0  0  0  0  0  0  0  0  0
    3.4427   -2.1099    0.0000 C   0  0  0  0  0  0  0  0  0  0  0  0
    4.5227   -1.3252    0.0000 C   0  0  0  0  0  0  0  0  0  0  0  0
    5.0076   -0.6578    0.0000 C   0  0  0  0  0  0  0  0  0  0  0  0
    3.2128   -0.6578    0.0000 C   0  0  0  0  0  0  0  0  0  0  0  0
    5.8282   -0.7440    0.0000 C   0  0  0  0  0  0  0  0  0  0  0  0
    3.5483    0.0959    0.0000 C   0  0  0  0  0  0  0  0  0  0  0  0
    6.3130   -0.0766    0.0000 C   0  0  0  0  0  0  0  0  0  0  0  0
    4.3688    0.1822    0.0000 C   0  0  0  0  0  0  0  0  0  0  0  0
    3.0634    0.7634    0.0000 C   0  0  0  0  0  0  0  0  0  0  0  0
    7.1336   -0.1628    0.0000 C   0  0  0  0  0  0  0  0  0  0  0  0
    4.7044    0.9358    0.0000 C   0  0  0  0  0  0  0  0  0  0  0  0
    3.3989    1.5170    0.0000 C   0  0  0  0  0  0  0  0  0  0  0  0
    4.2195    1.6033    0.0000 C   0  0  0  0  0  0  0  0  0  0  0  0
    4.5550    2.3570    0.0000 C   0  0  0  0  0  0  0  0  0  0  0  0
    4.0701    3.0244    0.0000 C   0  0  0  0  0  0  0  0  0  0  0  0
    5.3755    2.4432    0.0000 C   0  0  0  0  0  0  0  0  0  0  0  0
    4.4057    3.7781    0.0000 C   0  0  0  0  0  0  0  0  0  0  0  0
    5.7111    3.1969    0.0000 C   0  0  0  0  0  0  0  0  0  0  0  0
    3.2496    2.9382    0.0000 C   0  0  0  0  0  0  0  0  0  0  0  0
    5.2262    3.8643    0.0000 C   0  0  0  0  0  0  0  0  0  0  0  0
    0.0000    0.0000    0.0000 H   0  0  0  0  0  0  0  0  0  0  0  0
    0.0000    0.0000    0.0000 H   0  0  0  0  0  0  0  0  0  0  0  0
    0.0000    0.0000    0.0000 H   0  0  0  0  0  0  0  0  0  0  0  0
    0.0000    0.0000    0.0000 H   0  0  0  0  0  0  0  0  0  0  0  0
    0.0000    0.0000    0.0000 H   0  0  0  0  0  0  0  0  0  0  0  0
    0.0000    0.0000    0.0000 H   0  0  0  0  0  0  0  0  0  0  0  0
    0.0000    0.0000    0.0000 H   0  0  0  0  0  0  0  0  0  0  0  0
    0.0000    0.0000    0.0000 H   0  0  0  0  0  0  0  0  0  0  0  0
    0.0000    0.0000    0.0000 H   0  0  0  0  0  0  0  0  0  0  0  0
    0.0000    0.0000    0.0000 H   0  0  0  0  0  0  0  0  0  0  0  0
    0.0000    0.0000    0.0000 H   0  0  0  0  0  0  0  0  0  0  0  0
    0.0000    0.0000    0.0000 H   0  0  0  0  0  0  0  0  0  0  0  0
    0.0000    0.0000    0.0000 H   0  0  0  0  0  0  0  0  0  0  0  0
    0.0000    0.0000    0.0000 H   0  0  0  0  0  0  0  0  0  0  0  0
    0.0000    0.0000    0.0000 H   0  0  0  0  0  0  0  0  0  0  0  0
    0.0000    0.0000    0.0000 H   0  0  0  0  0  0  0  0  0  0  0  0
    0.0000    0.0000    0.0000 H   0  0  0  0  0  0  0  0  0  0  0  0
    0.0000    0.0000    0.0000 H   0  0  0  0  0  0  0  0  0  0  0  0
    0.0000    0.0000    0.0000 H   0  0  0  0  0  0  0  0  0  0  0  0
    0.0000    0.0000    0.0000 H   0  0  0  0  0  0  0  0  0  0  0  0
    0.0000    0.0000    0.0000 H   0  0  0  0  0  0  0  0  0  0  0  0
    0.0000    0.0000    0.0000 H   0  0  0  0  0  0  0  0  0  0  0  0
    0.0000    0.0000    0.0000 H   0  0  0  0  0  0  0  0  0  0  0  0
    0.0000    0.0000    0.0000 H   0  0  0  0  0  0  0  0  0  0  0  0
    0.0000    0.0000    0.0000 H   0  0  0  0  0  0  0  0  0  0  0  0
    0.0000    0.0000    0.0000 H   0  0  0  0  0  0  0  0  0  0  0  0
    0.0000    0.0000    0.0000 H   0  0  0  0  0  0  0  0  0  0  0  0
    0.0000    0.0000    0.0000 H   0  0  0  0  0  0  0  0  0  0  0  0
  1 13  2  0
  2  8  1  0
  2 14  2  0
  3 13  1  0
  3 14  1  0
  3 16  1  0
  4  6  1  0
  4 31  2  0
  5  7  2  0
  5 31  1  0
  6  7  1  0
  8  9  1  0
  8 10  1  0
  8 13  1  0
  9 11  1  0
 10 12  1  0
 11 12  1  0
 14 15  1  0
 15 17  1  0
 16 18  1  0
 17 19  1  0
 18 20  2  0
 18 21  1  0
 19 22  1  0
 20 23  1  0
 21 24  2  0
 23 25  2  0
 24 25  1  0
 25 26  1  0
 26 27  1  0
 26 28  2  0
 27 29  2  0
 27 31  1  0
 28 30  1  0
 29 32  1  0
 30 32  2  0
  6 33  1  0
  9 34  1  0
  9 35  1  0
 10 36  1  0
 10 37  1  0
 11 38  1  0
 11 39  1  0
 12 40  1  0
 12 41  1  0
 15 42  1  0
 15 43  1  0
 16 44  1  0
 16 45  1  0
 17 46  1  0
 17 47  1  0
 19 48  1  0
 19 49  1  0
 20 50  1  0
 21 51  1  0
 22 52  1  0
 22 53  1  0
 22 54  1  0
 23 55  1  0
 24 56  1  0
 28 57  1  0
 29 58  1  0
 30 59  1  0
 32 60  1  0
M  END
>  <ALOGPS_LOGP>  (1) 
4.51

>  <ALOGPS_LOGS>  (1) 
-4.69

>  <ALOGPS_SOLUBILITY>  (1) 
8.84e-03 g/l

>  <DATABASE_ID>  (1) 
DB01029

>  <DATABASE_NAME>  (1) 
drugbank

>  <DRUGBANK_ID>  (1) 
DB01029

>  <DRUG_GROUPS>  (1) 
approved; investigational

>  <EXACT_MASS>  (1) 
428.232459548

>  <FORMULA>  (1) 
C25H28N6O

>  <GENERIC_NAME>  (1) 
Irbesartan

>  <INCHI_IDENTIFIER>  (1) 
InChI=1S/C25H28N6O/c1-2-3-10-22-26-25(15-6-7-16-25)24(32)31(22)17-18-11-13-19(14-12-18)20-8-4-5-9-21(20)23-27-29-30-28-23/h4-5,8-9,11-14H,2-3,6-7,10,15-17H2,1H3,(H,27,28,29,30)

>  <INCHI_KEY>  (1) 
YOSHYTLCDANDAN-UHFFFAOYSA-N

>  <JCHEM_ACCEPTOR_COUNT>  (1) 
5

>  <JCHEM_AVERAGE_POLARIZABILITY>  (1) 
47.58732346937174

>  <JCHEM_BIOAVAILABILITY>  (1) 
1

>  <JCHEM_DONOR_COUNT>  (1) 
1

>  <JCHEM_FORMAL_CHARGE>  (1) 
0

>  <JCHEM_GHOSE_FILTER>  (1) 
0

>  <JCHEM_IUPAC>  (1) 
2-butyl-3-({4-[2-(2H-1,2,3,4-tetrazol-5-yl)phenyl]phenyl}methyl)-1,3-diazaspiro[4.4]non-1-en-4-one

>  <JCHEM_LOGP>  (1) 
5.495261916666666

>  <JCHEM_MDDR_LIKE_RULE>  (1) 
1

>  <JCHEM_NUMBER_OF_RINGS>  (1) 
5

>  <JCHEM_PHYSIOLOGICAL_CHARGE>  (1) 
0

>  <JCHEM_PKA_STRONGEST_ACIDIC>  (1) 
7.399455602678195

>  <JCHEM_PKA_STRONGEST_BASIC>  (1) 
4.116176027401369

>  <JCHEM_POLAR_SURFACE_AREA>  (1) 
87.13000000000001

>  <JCHEM_REFRACTIVITY>  (1) 
136.71609999999998

>  <JCHEM_ROTATABLE_BOND_COUNT>  (1) 
7

>  <JCHEM_RULE_OF_FIVE>  (1) 
0

>  <JCHEM_TRADITIONAL_IUPAC>  (1) 
irbesartan

>  <JCHEM_VEBER_RULE>  (1) 
0

>  <MOLECULAR_WEIGHT>  (1) 
428.5294

>  <PRODUCTS>  (1) 
Act Irbesartan; Act Irbesartan/hct; Apo-irbesartan; Apo-irbesartan/hctz; Aprovel; Auro-irbesartan; Auro-irbesartan Hct; Ava-irbesartan; Ava-irbesartan/hctz; Avalide; Avapro; Bio-irbesartan; Dom-irbesartan; Dom-irbesartan-hctz; Ifirmacombi; Ipg-irbesartan; Irbesartan; Irbesartan Bms; Irbesartan Hct; Irbesartan Hydrochlorothiazide Bms; Irbesartan Teva; Irbesartan Zentiva; Irbesartan and Hydrochlorothiazide; Irbesartan-hctz; Irbesartan/hct; Irbesartan/hctz; Jamp-irbesartan; Jamp-irbesartan and Hydrochlorothiazide; Karvea; Karvezide; Mar-irbesartan; Mint-irbesartan; Mint-irbesartan/hctz; Mylan-irbesartan; Mylan-irbesartan Hctz; Ntp-irbesartan; Ntp-irbesartan/hctz; PMS-irbesartan; PMS-irbesartan-hctz; Pendo-irbesartan; Pendo-irbesartan-hctz; Priva-irbesartan; Q-irbesartan; Ran-irbesartan; Ran-irbesartan Hctz; Ratio-irbesartan; Ratio-irbesartan Hctz; Riva-irbesartan; Sabervel; Sandoz Irbesartan; Sandoz Irbesartan Hct; Teva-irbesartan; Teva-irbesartan/hctz; Van-irbesartan; Van-irbesartan-hctz

>  <SECONDARY_ACCESSION_NUMBERS>  (1) 
APRD00413

>  <SMILES>  (1) 
CCCCC1=NC2(CCCC2)C(=O)N1CC1=CC=C(C=C1)C1=CC=CC=C1C1=NNN=N1

>  <SYNONYMS>  (1) 
Irbesartan

$$$$
