 
     RDKit          2D

 41 43  0  0  0  0  0  0  0  0999 V2000
    9.4462   -9.1575    0.0000 C   0  0  0  0  0  0  0  0  0  0  0  0
    9.4462   -9.9825    0.0000 C   0  0  0  0  0  0  0  0  0  0  0  0
   10.1607  -10.3950    0.0000 C   0  0  0  0  0  0  0  0  0  0  0  0
   10.8752   -9.9825    0.0000 C   0  0  0  0  0  0  0  0  0  0  0  0
   10.8752   -9.1575    0.0000 C   0  0  0  0  0  0  0  0  0  0  0  0
   10.1607   -8.7450    0.0000 C   0  0  0  0  0  0  0  0  0  0  0  0
   11.5897  -10.3950    0.0000 C   0  0  0  0  0  0  0  0  0  0  0  0
   12.3041   -9.9825    0.0000 C   0  0  0  0  0  0  0  0  0  0  0  0
   12.3041   -9.1575    0.0000 C   0  0  0  0  0  0  0  0  0  0  0  0
   11.5897   -8.7450    0.0000 O   0  0  0  0  0  0  0  0  0  0  0  0
   13.0186  -10.3950    0.0000 C   0  0  0  0  0  0  0  0  0  0  0  0
   13.7331   -9.9825    0.0000 C   0  0  0  0  0  0  0  0  0  0  0  0
   13.7331   -9.1575    0.0000 C   0  0  0  0  0  0  0  0  0  0  0  0
   13.0186   -8.7450    0.0000 O   0  0  0  0  0  0  0  0  0  0  0  0
   14.4475  -10.3950    0.0000 C   0  0  0  0  0  0  0  0  0  0  0  0
   15.1620   -9.9825    0.0000 C   0  0  0  0  0  0  0  0  0  0  0  0
   15.1620   -9.1575    0.0000 C   0  0  0  0  0  0  0  0  0  0  0  0
   14.4475   -8.7450    0.0000 C   0  0  0  0  0  0  0  0  0  0  0  0
   11.5897  -11.2200    0.0000 O   0  0  0  0  0  0  0  0  0  0  0  0
   13.0186  -11.2198    0.0000 C   0  0  0  0  0  0  0  0  0  0  0  0
   13.7453  -11.6396    0.0000 C   0  0  0  0  0  0  0  0  0  0  0  0
   14.4561  -11.2294    0.0000 C   0  0  0  0  0  0  0  0  0  0  0  0
   13.7451  -12.4574    0.0000 O   0  0  0  0  0  0  0  0  0  0  0  0
   15.8899   -8.7371    0.0000 N   0  0  0  0  0  0  0  0  0  0  0  0
   16.6013   -9.1477    0.0000 O   0  0  0  0  0  0  0  0  0  0  0  0
   15.8896   -7.9201    0.0000 O   0  0  0  0  0  0  0  0  0  0  0  0
    0.0000    0.0000    0.0000 H   0  0  0  0  0  0  0  0  0  0  0  0
    0.0000    0.0000    0.0000 H   0  0  0  0  0  0  0  0  0  0  0  0
    0.0000    0.0000    0.0000 H   0  0  0  0  0  0  0  0  0  0  0  0
    0.0000    0.0000    0.0000 H   0  0  0  0  0  0  0  0  0  0  0  0
    0.0000    0.0000    0.0000 H   0  0  0  0  0  0  0  0  0  0  0  0
    0.0000    0.0000    0.0000 H   0  0  0  0  0  0  0  0  0  0  0  0
    0.0000    0.0000    0.0000 H   0  0  0  0  0  0  0  0  0  0  0  0
    0.0000    0.0000    0.0000 H   0  0  0  0  0  0  0  0  0  0  0  0
    0.0000    0.0000    0.0000 H   0  0  0  0  0  0  0  0  0  0  0  0
    0.0000    0.0000    0.0000 H   0  0  0  0  0  0  0  0  0  0  0  0
    0.0000    0.0000    0.0000 H   0  0  0  0  0  0  0  0  0  0  0  0
    0.0000    0.0000    0.0000 H   0  0  0  0  0  0  0  0  0  0  0  0
    0.0000    0.0000    0.0000 H   0  0  0  0  0  0  0  0  0  0  0  0
    0.0000    0.0000    0.0000 H   0  0  0  0  0  0  0  0  0  0  0  0
    0.0000    0.0000    0.0000 H   0  0  0  0  0  0  0  0  0  0  0  0
  1  2  2  0
  2  3  1  0
  3  4  2  0
  4  5  1  0
  5  6  2  0
  1  6  1  0
  4  7  1  0
  7  8  2  0
  8  9  1  0
  9 10  1  0
  5 10  1  0
  8 11  1  0
 11 12  1  0
 12 13  2  0
  9 14  2  0
 12 15  1  0
 15 16  2  0
 16 17  1  0
 17 18  2  0
 13 18  1  0
  7 19  1  0
 11 20  1  0
 20 21  1  0
 21 22  1  0
 21 23  2  0
 17 24  1  0
 24 25  1  0
 24 26  2  0
  1 27  1  0
  2 28  1  0
  3 29  1  0
  6 30  1  0
 11 31  1  0
 13 32  1  0
 15 33  1  0
 16 34  1  0
 18 35  1  0
 19 36  1  0
 20 37  1  0
 20 38  1  0
 22 39  1  0
 22 40  1  0
 22 41  1  0
M  CHG  2  24   1  25  -1
M  END
>  <ALOGPS_LOGP>  (1) 
2.53

>  <ALOGPS_LOGS>  (1) 
-4.52

>  <ALOGPS_SOLUBILITY>  (1) 
1.06e-02 g/l

>  <DATABASE_ID>  (1) 
DB01418

>  <DATABASE_NAME>  (1) 
drugbank

>  <DRUGBANK_ID>  (1) 
DB01418

>  <DRUG_GROUPS>  (1) 
approved

>  <EXACT_MASS>  (1) 
353.089937217

>  <FORMULA>  (1) 
C19H15NO6

>  <GENERIC_NAME>  (1) 
Acenocoumarol

>  <INCHI_IDENTIFIER>  (1) 
InChI=1S/C19H15NO6/c1-11(21)10-15(12-6-8-13(9-7-12)20(24)25)17-18(22)14-4-2-3-5-16(14)26-19(17)23/h2-9,15,22H,10H2,1H3

>  <INCHI_KEY>  (1) 
VABCILAOYCMVPS-UHFFFAOYSA-N

>  <INTERNATIONAL_BRANDS>  (1) 
Ascumar; Mini-sintrom

>  <JCHEM_ACCEPTOR_COUNT>  (1) 
5

>  <JCHEM_AVERAGE_POLARIZABILITY>  (1) 
34.34892877125328

>  <JCHEM_BIOAVAILABILITY>  (1) 
1

>  <JCHEM_DONOR_COUNT>  (1) 
1

>  <JCHEM_FORMAL_CHARGE>  (1) 
0

>  <JCHEM_GHOSE_FILTER>  (1) 
1

>  <JCHEM_IUPAC>  (1) 
4-hydroxy-3-[1-(4-nitrophenyl)-3-oxobutyl]-2H-chromen-2-one

>  <JCHEM_LOGP>  (1) 
2.6846915516666665

>  <JCHEM_MDDR_LIKE_RULE>  (1) 
0

>  <JCHEM_NUMBER_OF_RINGS>  (1) 
3

>  <JCHEM_PHYSIOLOGICAL_CHARGE>  (1) 
-1

>  <JCHEM_PKA>  (1) 
19.284281499738075

>  <JCHEM_PKA_STRONGEST_ACIDIC>  (1) 
5.793037768490707

>  <JCHEM_PKA_STRONGEST_BASIC>  (1) 
-6.825925280097388

>  <JCHEM_POLAR_SURFACE_AREA>  (1) 
109.41999999999999

>  <JCHEM_REFRACTIVITY>  (1) 
94.18479999999998

>  <JCHEM_ROTATABLE_BOND_COUNT>  (1) 
5

>  <JCHEM_RULE_OF_FIVE>  (1) 
1

>  <JCHEM_TRADITIONAL_IUPAC>  (1) 
acenocumarolo

>  <JCHEM_VEBER_RULE>  (1) 
0

>  <MOLECULAR_WEIGHT>  (1) 
353.3255

>  <PRODUCTS>  (1) 
Sintrom

>  <SMILES>  (1) 
CC(=O)CC(C1=CC=C(C=C1)[N+]([O-])=O)C1=C(O)C2=CC=CC=C2OC1=O

>  <SYNONYMS>  (1) 
Acenocoumarin; Acenocoumarolum; Nicoumalone; Nicumalon; Nitrophenylacetylethyl-4-hydroxycoumarine; Nitrovarfarian; Nitrowarfarin

$$$$
