 
     RDKit          2D

 32 33  0  0  0  0  0  0  0  0999 V2000
   15.8430  -10.2159    0.0000 C   0  0  0  0  0  0  0  0  0  0  0  0
   15.8224  -11.0426    0.0000 C   0  0  0  0  0  0  0  0  0  0  0  0
   15.1295   -9.8043    0.0000 N   0  0  0  0  0  0  0  0  0  0  0  0
   16.5668   -9.8248    0.0000 C   0  0  0  0  0  0  0  0  0  0  0  0
   16.5291  -11.4713    0.0000 C   0  0  0  0  0  0  0  0  0  0  0  0
   14.4194  -10.2159    0.0000 N   0  0  0  0  0  0  0  0  0  0  0  0
   17.2734  -10.2501    0.0000 C   0  0  0  0  0  0  0  0  0  0  0  0
   17.2941  -11.0734    0.0000 C   0  0  0  0  0  0  0  0  0  0  0  0
   16.5497  -12.2981    0.0000 C   0  0  0  0  0  0  0  0  0  0  0  0
   13.7025   -9.8077    0.0000 C   0  0  0  0  0  0  0  0  0  0  0  0
   17.9595  -11.5056    0.0000 O   0  0  0  0  0  0  0  0  0  0  0  0
   17.2151  -12.7233    0.0000 O   0  0  0  0  0  0  0  0  0  0  0  0
   15.7847  -12.6891    0.0000 O   0  0  0  0  0  0  0  0  0  0  0  0
   13.7025   -8.9810    0.0000 C   0  0  0  0  0  0  0  0  0  0  0  0
   12.9924  -10.2159    0.0000 C   0  0  0  0  0  0  0  0  0  0  0  0
   12.9924   -8.5659    0.0000 C   0  0  0  0  0  0  0  0  0  0  0  0
   12.2755   -9.8077    0.0000 C   0  0  0  0  0  0  0  0  0  0  0  0
   12.2755   -8.9810    0.0000 C   0  0  0  0  0  0  0  0  0  0  0  0
   12.9924   -7.7426    0.0000 C   0  0  0  0  0  0  0  0  0  0  0  0
   11.5585   -8.5659    0.0000 O   0  0  0  0  0  0  0  0  0  0  0  0
   12.2789   -7.3310    0.0000 O   0  0  0  0  0  0  0  0  0  0  0  0
   13.7059   -7.3344    0.0000 O   0  0  0  0  0  0  0  0  0  0  0  0
    0.0000    0.0000    0.0000 H   0  0  0  0  0  0  0  0  0  0  0  0
    0.0000    0.0000    0.0000 H   0  0  0  0  0  0  0  0  0  0  0  0
    0.0000    0.0000    0.0000 H   0  0  0  0  0  0  0  0  0  0  0  0
    0.0000    0.0000    0.0000 H   0  0  0  0  0  0  0  0  0  0  0  0
    0.0000    0.0000    0.0000 H   0  0  0  0  0  0  0  0  0  0  0  0
    0.0000    0.0000    0.0000 H   0  0  0  0  0  0  0  0  0  0  0  0
    0.0000    0.0000    0.0000 H   0  0  0  0  0  0  0  0  0  0  0  0
    0.0000    0.0000    0.0000 H   0  0  0  0  0  0  0  0  0  0  0  0
    0.0000    0.0000    0.0000 H   0  0  0  0  0  0  0  0  0  0  0  0
    0.0000    0.0000    0.0000 H   0  0  0  0  0  0  0  0  0  0  0  0
  1  2  2  0
  1  3  1  0
  1  4  1  0
  2  5  1  0
  3  6  2  0
  4  7  2  0
  5  8  2  0
  5  9  1  0
  6 10  1  0
  8 11  1  0
  9 12  1  0
  9 13  2  0
 10 14  2  0
 10 15  1  0
 14 16  1  0
 15 17  2  0
 16 18  2  0
 16 19  1  0
 18 20  1  0
 19 21  1  0
 19 22  2  0
  7  8  1  0
 17 18  1  0
  2 23  1  0
  4 24  1  0
  7 25  1  0
 11 26  1  0
 12 27  1  0
 14 28  1  0
 15 29  1  0
 17 30  1  0
 20 31  1  0
 21 32  1  0
M  END
>  <ALOGPS_LOGP>  (1) 
2.77

>  <ALOGPS_LOGS>  (1) 
-3.59

>  <ALOGPS_SOLUBILITY>  (1) 
7.81e-02 g/l

>  <DATABASE_ID>  (1) 
DB01250

>  <DATABASE_NAME>  (1) 
drugbank

>  <DRUGBANK_ID>  (1) 
DB01250

>  <DRUG_GROUPS>  (1) 
approved

>  <EXACT_MASS>  (1) 
302.053886062

>  <FORMULA>  (1) 
C14H10N2O6

>  <GENERIC_NAME>  (1) 
Olsalazine

>  <INCHI_IDENTIFIER>  (1) 
InChI=1S/C14H10N2O6/c17-11-3-1-7(5-9(11)13(19)20)15-16-8-2-4-12(18)10(6-8)14(21)22/h1-6,17-18H,(H,19,20)(H,21,22)/b16-15+

>  <INCHI_KEY>  (1) 
QQBDLJCYGRGAKP-FOCLMDBBSA-N

>  <JCHEM_ACCEPTOR_COUNT>  (1) 
8

>  <JCHEM_AVERAGE_POLARIZABILITY>  (1) 
28.607371805346208

>  <JCHEM_BIOAVAILABILITY>  (1) 
1

>  <JCHEM_DONOR_COUNT>  (1) 
4

>  <JCHEM_FORMAL_CHARGE>  (1) 
0

>  <JCHEM_GHOSE_FILTER>  (1) 
1

>  <JCHEM_IUPAC>  (1) 
5-[(E)-2-(3-carboxy-4-hydroxyphenyl)diazen-1-yl]-2-hydroxybenzoic acid

>  <JCHEM_LOGP>  (1) 
4.387174662

>  <JCHEM_MDDR_LIKE_RULE>  (1) 
0

>  <JCHEM_NUMBER_OF_RINGS>  (1) 
2

>  <JCHEM_PHYSIOLOGICAL_CHARGE>  (1) 
-2

>  <JCHEM_PKA>  (1) 
3.5288097153094884

>  <JCHEM_PKA_STRONGEST_ACIDIC>  (1) 
2.926955922273939

>  <JCHEM_PKA_STRONGEST_BASIC>  (1) 
-0.018819112142214878

>  <JCHEM_POLAR_SURFACE_AREA>  (1) 
139.78

>  <JCHEM_REFRACTIVITY>  (1) 
78.85119999999999

>  <JCHEM_ROTATABLE_BOND_COUNT>  (1) 
4

>  <JCHEM_RULE_OF_FIVE>  (1) 
1

>  <JCHEM_TRADITIONAL_IUPAC>  (1) 
olsalazine

>  <JCHEM_VEBER_RULE>  (1) 
0

>  <MOLECULAR_WEIGHT>  (1) 
302.239

>  <PRODUCTS>  (1) 
Dipentum

>  <SALTS>  (1) 
Olsalazine sodium

>  <SMILES>  (1) 
OC(=O)C1=CC(=CC=C1O)\N=N\C1=CC=C(O)C(=C1)C(O)=O

$$$$
