
     RDKit          2D

 24 23  0  0  1  0  0  0  0  0999 V2000
    0.5230    1.1270    0.0000 C   0  0  0  0  0  0  0  0  0  0  0  0
    4.0954    0.7145    0.0000 C   0  0  0  0  0  0  0  0  0  0  0  0
    1.2375    0.7145    0.0000 C   0  0  0  0  0  0  0  0  0  0  0  0
    3.3809    1.1270    0.0000 C   0  0  0  0  0  0  0  0  0  0  0  0
    1.9520    1.1270    0.0000 C   0  0  0  0  0  0  0  0  0  0  0  0
    2.6664    0.7145    0.0000 C   0  0  0  0  0  0  0  0  0  0  0  0
   -0.1914    0.7145    0.0000 O   0  0  0  0  0  0  0  0  0  0  0  0
    4.8099    1.1270    0.0000 O   0  0  0  0  0  0  0  0  0  0  0  0
    1.2375   -0.1105    0.0000 O   0  0  0  0  0  0  0  0  0  0  0  0
    3.3809    1.9520    0.0000 O   0  0  0  0  0  0  0  0  0  0  0  0
    1.9520    1.9520    0.0000 O   0  0  0  0  0  0  0  0  0  0  0  0
    2.6664   -0.1105    0.0000 O   0  0  0  0  0  0  0  0  0  0  0  0
    0.0000    0.0000    0.0000 H   0  0  0  0  0  0  0  0  0  0  0  0
    0.0000    0.0000    0.0000 H   0  0  0  0  0  0  0  0  0  0  0  0
    0.0000    0.0000    0.0000 H   0  0  0  0  0  0  0  0  0  0  0  0
    0.0000    0.0000    0.0000 H   0  0  0  0  0  0  0  0  0  0  0  0
    0.0000    0.0000    0.0000 H   0  0  0  0  0  0  0  0  0  0  0  0
    0.0000    0.0000    0.0000 H   0  0  0  0  0  0  0  0  0  0  0  0
    0.0000    0.0000    0.0000 H   0  0  0  0  0  0  0  0  0  0  0  0
    0.0000    0.0000    0.0000 H   0  0  0  0  0  0  0  0  0  0  0  0
    0.0000    0.0000    0.0000 H   0  0  0  0  0  0  0  0  0  0  0  0
    0.0000    0.0000    0.0000 H   0  0  0  0  0  0  0  0  0  0  0  0
    0.0000    0.0000    0.0000 H   0  0  0  0  0  0  0  0  0  0  0  0
    0.0000    0.0000    0.0000 H   0  0  0  0  0  0  0  0  0  0  0  0
  3  1  1  1
  4  2  1  1
  5  3  1  0
  6  4  1  0
  6  5  1  0
  7  1  2  0
  8  2  1  0
  3  9  1  0
  4 10  1  0
  5 11  1  6
  6 12  1  1
  1 13  1  0
  2 14  1  0
  2 15  1  0
  3 16  1  0
  4 17  1  0
  5 18  1  0
  6 19  1  0
  8 20  1  0
  9 21  1  0
 10 22  1  0
 11 23  1  0
 12 24  1  0
M  END
>  <ALOGPS_LOGP>  (1) 
-2.41

>  <ALOGPS_LOGS>  (1) 
0.16

>  <ALOGPS_SOLUBILITY>  (1) 
2.61e+02 g/l

>  <DATABASE_ID>  (1) 
DB01914

>  <DATABASE_NAME>  (1) 
drugbank

>  <DRUGBANK_ID>  (1) 
DB01914

>  <DRUG_GROUPS>  (1) 
approved

>  <EXACT_MASS>  (1) 
180.063388116

>  <FORMULA>  (1) 
C6H12O6

>  <GENERIC_NAME>  (1) 
D-glucose

>  <INCHI_IDENTIFIER>  (1) 
InChI=1S/C6H12O6/c7-1-3(9)5(11)6(12)4(10)2-8/h1,3-6,8-12H,2H2/t3-,4+,5+,6+/m0/s1

>  <INCHI_KEY>  (1) 
GZCGUPFRVQAUEE-SLPGGIOYSA-N

>  <JCHEM_ACCEPTOR_COUNT>  (1) 
6

>  <JCHEM_AVERAGE_POLARIZABILITY>  (1) 
16.233020926173957

>  <JCHEM_BIOAVAILABILITY>  (1) 
1

>  <JCHEM_DONOR_COUNT>  (1) 
5

>  <JCHEM_FORMAL_CHARGE>  (1) 
0

>  <JCHEM_GHOSE_FILTER>  (1) 
0

>  <JCHEM_IUPAC>  (1) 
(2R,3S,4R,5R)-2,3,4,5,6-pentahydroxyhexanal

>  <JCHEM_LOGP>  (1) 
-3.5683605629999993

>  <JCHEM_MDDR_LIKE_RULE>  (1) 
0

>  <JCHEM_NUMBER_OF_RINGS>  (1) 
0

>  <JCHEM_PHYSIOLOGICAL_CHARGE>  (1) 
0

>  <JCHEM_PKA>  (1) 
12.026745136455522

>  <JCHEM_PKA_STRONGEST_ACIDIC>  (1) 
11.800943217723058

>  <JCHEM_PKA_STRONGEST_BASIC>  (1) 
-2.974219876255926

>  <JCHEM_POLAR_SURFACE_AREA>  (1) 
118.22000000000001

>  <JCHEM_REFRACTIVITY>  (1) 
37.3456

>  <JCHEM_ROTATABLE_BOND_COUNT>  (1) 
5

>  <JCHEM_RULE_OF_FIVE>  (1) 
1

>  <JCHEM_TRADITIONAL_IUPAC>  (1) 
(+)-glucose

>  <JCHEM_VEBER_RULE>  (1) 
0

>  <MOLECULAR_WEIGHT>  (1) 
180.1559

>  <PRODUCTS>  (1) 
ACD Blood-Pack Units (PL 146 Plastic); Accusol 35 K2; Accusol 35 K4; Acd-A; Anticoagulant Citrate Phosphate Dextrose (CPD) Blood-Pack Units in PL 146 Plastic; Cpd; Cpd Solution; Cpda-1; Dextrose; Haemonetics Additive Solution Formula 3 (AS-3); Haemonetics Anticoagulant Citrate Phosphate Double Dextrose Solution (CP2D); Ionosol and Dextrose; Plasma-lyte 56 and Dextrose; Prismasol 2; Prismasol 4; Sag-mannitol Solution; Selutrio 10; Selutrio 40; Sterile Cord Blood Collection Unit (MSC1207DD); TERUFLEX Blood Bag System Anticoagulant Citrate Phosphate Dextrose Adenine (CPDA-1)

>  <SALTS>  (1) 
Dextrose monohydrate

>  <SECONDARY_ACCESSION_NUMBERS>  (1) 
EXPT01609; DB11280

>  <SMILES>  (1) 
[H][C@@](O)(CO)[C@@]([H])(O)[C@]([H])(O)[C@@]([H])(O)C=O

>  <SYNONYMS>  (1) 
aldehydo-D-glucose; Anhydrous dextrose; D-Glucose in linear form; D-glucose, anhydrous; D(+)-Glucose; Dextrose anhydrous; Dextrose, anhydrous; Glucose; Glucose anhydrous; Glucose, anhydrous

$$$$
