1413
     RDKit          2D

 56 59  0  0  1  0  0  0  0  0999 V2000
    4.6868   -0.2673    0.0000 S   0  0  0  0  0  0  0  0  0  0  0  0
   10.3250   -0.6762    0.0000 S   0  0  0  0  0  0  0  0  0  0  0  0
    6.8152    1.5582    0.0000 O   0  0  0  0  0  0  0  0  0  0  0  0
    5.4012    2.6203    0.0000 O   0  0  0  0  0  0  0  0  0  0  0  0
    3.9722    2.6203    0.0000 O   0  0  0  0  0  0  0  0  0  0  0  0
    7.8278    0.5655    0.0000 O   0  0  0  0  0  0  0  0  0  0  0  0
    7.1823   -1.8238    0.0000 O   0  0  0  0  0  0  0  0  0  0  0  0
    2.5433    0.9702    0.0000 N   0  0  0  0  0  0  0  0  0  0  0  0
    5.4012    0.9702    0.0000 N   0  0  0  0  0  0  0  0  0  0  0  0
    6.8152   -0.4428    0.0000 N   0  0  0  0  0  0  0  0  0  0  0  0
    7.9796   -1.6119    0.0000 N   0  0  0  0  0  0  0  0  0  0  0  0
    9.2894    0.1661    0.0000 N   0  0  0  0  0  0  0  0  0  0  0  0
   10.6337    0.7612    0.0000 N   0  0  0  0  0  0  0  0  0  0  0  0
    2.9558    0.2558    0.0000 C   0  0  0  0  0  0  0  0  0  0  0  0
    1.7363    0.7987    0.0000 C   0  0  0  0  0  0  0  0  0  0  0  0
    3.2577    1.3827    0.0000 C   0  0  0  0  0  0  0  0  0  0  0  0
    2.4037   -0.3573    0.0000 C   0  0  0  0  0  0  0  0  0  0  0  0
    1.6500   -0.0218    0.0000 C   0  0  0  0  0  0  0  0  0  0  0  0
    2.3718    1.7773    0.0000 C   0  0  0  0  0  0  0  0  0  0  0  0
    3.9722    0.9702    0.0000 C   0  0  0  0  0  0  0  0  0  0  0  0
    5.4012    0.1452    0.0000 C   0  0  0  0  0  0  0  0  0  0  0  0
    6.2331    0.1418    0.0000 C   0  0  0  0  0  0  0  0  0  0  0  0
    4.6868    1.3827    0.0000 C   0  0  0  0  0  0  0  0  0  0  0  0
    3.9722    0.1452    0.0000 C   0  0  0  0  0  0  0  0  0  0  0  0
    6.2331    0.9737    0.0000 C   0  0  0  0  0  0  0  0  0  0  0  0
    4.6868    2.2077    0.0000 C   0  0  0  0  0  0  0  0  0  0  0  0
    7.6126   -0.2308    0.0000 C   0  0  0  0  0  0  0  0  0  0  0  0
    8.1947   -0.8154    0.0000 C   0  0  0  0  0  0  0  0  0  0  0  0
    8.9921   -0.6036    0.0000 C   0  0  0  0  0  0  0  0  0  0  0  0
    9.6322   -1.1241    0.0000 C   0  0  0  0  0  0  0  0  0  0  0  0
   10.1132    0.1212    0.0000 C   0  0  0  0  0  0  0  0  0  0  0  0
    6.9671   -2.6203    0.0000 C   0  0  0  0  0  0  0  0  0  0  0  0
    0.0000    0.0000    0.0000 H   0  0  0  0  0  0  0  0  0  0  0  0
    0.0000    0.0000    0.0000 H   0  0  0  0  0  0  0  0  0  0  0  0
    0.0000    0.0000    0.0000 H   0  0  0  0  0  0  0  0  0  0  0  0
    0.0000    0.0000    0.0000 H   0  0  0  0  0  0  0  0  0  0  0  0
    0.0000    0.0000    0.0000 H   0  0  0  0  0  0  0  0  0  0  0  0
    0.0000    0.0000    0.0000 H   0  0  0  0  0  0  0  0  0  0  0  0
    0.0000    0.0000    0.0000 H   0  0  0  0  0  0  0  0  0  0  0  0
    0.0000    0.0000    0.0000 H   0  0  0  0  0  0  0  0  0  0  0  0
    0.0000    0.0000    0.0000 H   0  0  0  0  0  0  0  0  0  0  0  0
    0.0000    0.0000    0.0000 H   0  0  0  0  0  0  0  0  0  0  0  0
    0.0000    0.0000    0.0000 H   0  0  0  0  0  0  0  0  0  0  0  0
    0.0000    0.0000    0.0000 H   0  0  0  0  0  0  0  0  0  0  0  0
    0.0000    0.0000    0.0000 H   0  0  0  0  0  0  0  0  0  0  0  0
    0.0000    0.0000    0.0000 H   0  0  0  0  0  0  0  0  0  0  0  0
    0.0000    0.0000    0.0000 H   0  0  0  0  0  0  0  0  0  0  0  0
    0.0000    0.0000    0.0000 H   0  0  0  0  0  0  0  0  0  0  0  0
    0.0000    0.0000    0.0000 H   0  0  0  0  0  0  0  0  0  0  0  0
    0.0000    0.0000    0.0000 H   0  0  0  0  0  0  0  0  0  0  0  0
    0.0000    0.0000    0.0000 H   0  0  0  0  0  0  0  0  0  0  0  0
    0.0000    0.0000    0.0000 H   0  0  0  0  0  0  0  0  0  0  0  0
    0.0000    0.0000    0.0000 H   0  0  0  0  0  0  0  0  0  0  0  0
    0.0000    0.0000    0.0000 H   0  0  0  0  0  0  0  0  0  0  0  0
    0.0000    0.0000    0.0000 H   0  0  0  0  0  0  0  0  0  0  0  0
    0.0000    0.0000    0.0000 H   0  0  0  0  0  0  0  0  0  0  0  0
  1 21  1  0
  1 24  1  0
  2 30  1  0
  2 31  1  0
  3 25  2  0
  4 26  1  0
  5 26  2  0
  6 27  2  0
  7 11  1  0
  7 32  1  0
  8 14  1  0
  8 15  1  0
  8 16  1  0
  8 19  1  0
  9 21  1  0
  9 23  1  0
  9 25  1  0
 22 10  1  1
 10 27  1  0
 11 28  2  0
 12 29  1  0
 12 31  2  0
 13 31  1  0
 14 17  1  0
 15 18  1  0
 16 20  1  0
 17 18  1  0
 20 23  2  0
 20 24  1  0
 21 22  1  0
 22 25  1  0
 23 26  1  0
 27 28  1  0
 28 29  1  0
 29 30  2  0
 10 33  1  0
 13 34  1  0
 13 35  1  0
 14 36  1  0
 14 37  1  0
 15 38  1  0
 15 39  1  0
 16 40  1  0
 16 41  1  0
 17 42  1  0
 17 43  1  0
 18 44  1  0
 18 45  1  0
 19 46  1  0
 19 47  1  0
 19 48  1  0
 21 49  1  6
 22 50  1  0
 24 51  1  0
 24 52  1  0
 30 53  1  0
 32 54  1  0
 32 55  1  0
 32 56  1  0
M  CHG  2   4  -1   8   1
M  END
>  <ALOGPS_LOGP>  (1) 
-0.37

>  <ALOGPS_LOGS>  (1) 
-4.49

>  <ALOGPS_SOLUBILITY>  (1) 
1.73e-02 g/l

>  <DATABASE_ID>  (1) 
DB01413

>  <DATABASE_NAME>  (1) 
drugbank

>  <DRUGBANK_ID>  (1) 
DB01413

>  <DRUG_GROUPS>  (1) 
approved

>  <EXACT_MASS>  (1) 
480.124959288

>  <FORMULA>  (1) 
C19H24N6O5S2

>  <GENERIC_NAME>  (1) 
Cefepime

>  <INCHI_IDENTIFIER>  (1) 
InChI=1S/C19H24N6O5S2/c1-25(5-3-4-6-25)7-10-8-31-17-13(16(27)24(17)14(10)18(28)29)22-15(26)12(23-30-2)11-9-32-19(20)21-11/h9,13,17H,3-8H2,1-2H3,(H3-,20,21,22,26,28,29)/b23-12-/t13-,17-/m1/s1

>  <INCHI_KEY>  (1) 
HVFLCNVBZFFHBT-ZKDACBOMSA-N

>  <INTERNATIONAL_BRANDS>  (1) 
Cepimax; Cepimex

>  <JCHEM_ACCEPTOR_COUNT>  (1) 
8

>  <JCHEM_AVERAGE_POLARIZABILITY>  (1) 
47.52971043634327

>  <JCHEM_BIOAVAILABILITY>  (1) 
1

>  <JCHEM_DONOR_COUNT>  (1) 
2

>  <JCHEM_FORMAL_CHARGE>  (1) 
0

>  <JCHEM_GHOSE_FILTER>  (1) 
0

>  <JCHEM_IUPAC>  (1) 
1-{[(6R,7R)-7-[(2Z)-2-(2-amino-1,3-thiazol-4-yl)-2-(methoxyimino)acetamido]-2-carboxylato-8-oxo-5-thia-1-azabicyclo[4.2.0]oct-2-en-3-yl]methyl}-1-methylpyrrolidin-1-ium

>  <JCHEM_LOGP>  (1) 
-4.287587759974695

>  <JCHEM_MDDR_LIKE_RULE>  (1) 
1

>  <JCHEM_NUMBER_OF_RINGS>  (1) 
4

>  <JCHEM_PHYSIOLOGICAL_CHARGE>  (1) 
0

>  <JCHEM_PKA>  (1) 
11.150420782470349

>  <JCHEM_PKA_STRONGEST_ACIDIC>  (1) 
3.2528262967041304

>  <JCHEM_PKA_STRONGEST_BASIC>  (1) 
4.061872878874441

>  <JCHEM_POLAR_SURFACE_AREA>  (1) 
150.04

>  <JCHEM_REFRACTIVITY>  (1) 
141.97529999999995

>  <JCHEM_ROTATABLE_BOND_COUNT>  (1) 
7

>  <JCHEM_RULE_OF_FIVE>  (1) 
1

>  <JCHEM_TRADITIONAL_IUPAC>  (1) 
cefepime

>  <JCHEM_VEBER_RULE>  (1) 
0

>  <MOLECULAR_WEIGHT>  (1) 
480.561

>  <PRODUCTS>  (1) 
Apo-cefepime; Cefepime; Cefepime Hydrochloride; Cefepime Hydrochloride and Dextrose; Cefepime for Injection; Cefepime for Injection, USP; Maxipime; Maxipime for Injection -pws IV Im 1g; Maxipime for Injection-pws IV 2gm

>  <SALTS>  (1) 
Cefepime dihydrochloride monohydrate; Cefepime hydrochloride

>  <SMILES>  (1) 
CO\N=C(/C(=O)N[C@@H]1C(=O)N2[C@]1([H])SCC(C[N+]1(C)CCCC1)=C2C([O-])=O)C1=CSC(N)=N1

>  <SYNONYMS>  (1) 
Cefepima; Cefepimum

$$$$
