
     RDKit          2D

 26 26  0  0  0  0  0  0  0  0999 V2000
   -0.0115    0.3964    0.0000 N   0  0  0  0  0  0  0  0  0  0  0  0
   -0.0115   -0.4285    0.0000 C   0  0  0  0  0  0  0  0  0  0  0  0
    0.6559    0.8813    0.0000 C   0  0  0  0  0  0  0  0  0  0  0  0
   -0.6789    0.8813    0.0000 C   0  0  0  0  0  0  0  0  0  0  0  0
    0.7029   -0.8410    0.0000 C   0  0  0  0  0  0  0  0  0  0  0  0
   -0.7260   -0.8410    0.0000 C   0  0  0  0  0  0  0  0  0  0  0  0
    0.4009    1.6660    0.0000 C   0  0  0  0  0  0  0  0  0  0  0  0
    1.4405    0.6264    0.0000 O   0  0  0  0  0  0  0  0  0  0  0  0
   -0.4240    1.6660    0.0000 C   0  0  0  0  0  0  0  0  0  0  0  0
    1.4173   -0.4285    0.0000 N   0  0  0  0  0  0  0  0  0  0  0  0
    0.7029   -1.6660    0.0000 O   0  0  0  0  0  0  0  0  0  0  0  0
   -1.4405   -0.4285    0.0000 C   0  0  0  0  0  0  0  0  0  0  0  0
    0.0000    0.0000    0.0000 H   0  0  0  0  0  0  0  0  0  0  0  0
    0.0000    0.0000    0.0000 H   0  0  0  0  0  0  0  0  0  0  0  0
    0.0000    0.0000    0.0000 H   0  0  0  0  0  0  0  0  0  0  0  0
    0.0000    0.0000    0.0000 H   0  0  0  0  0  0  0  0  0  0  0  0
    0.0000    0.0000    0.0000 H   0  0  0  0  0  0  0  0  0  0  0  0
    0.0000    0.0000    0.0000 H   0  0  0  0  0  0  0  0  0  0  0  0
    0.0000    0.0000    0.0000 H   0  0  0  0  0  0  0  0  0  0  0  0
    0.0000    0.0000    0.0000 H   0  0  0  0  0  0  0  0  0  0  0  0
    0.0000    0.0000    0.0000 H   0  0  0  0  0  0  0  0  0  0  0  0
    0.0000    0.0000    0.0000 H   0  0  0  0  0  0  0  0  0  0  0  0
    0.0000    0.0000    0.0000 H   0  0  0  0  0  0  0  0  0  0  0  0
    0.0000    0.0000    0.0000 H   0  0  0  0  0  0  0  0  0  0  0  0
    0.0000    0.0000    0.0000 H   0  0  0  0  0  0  0  0  0  0  0  0
    0.0000    0.0000    0.0000 H   0  0  0  0  0  0  0  0  0  0  0  0
  2  1  1  6
  3  1  1  0
  4  1  1  0
  5  2  1  0
  2  6  1  0
  7  3  1  0
  8  3  2  0
  9  4  1  0
 10  5  1  0
 11  5  2  0
 12  6  1  0
  9  7  1  0
  2 13  1  0
  4 14  1  0
  4 15  1  0
  6 16  1  0
  6 17  1  0
  7 18  1  0
  7 19  1  0
  9 20  1  0
  9 21  1  0
 10 22  1  0
 10 23  1  0
 12 24  1  0
 12 25  1  0
 12 26  1  0
M  END
>  <ALOGPS_LOGP>  (1) 
-0.64

>  <ALOGPS_LOGS>  (1) 
0.24

>  <ALOGPS_SOLUBILITY>  (1) 
2.98e+02 g/l

>  <DATABASE_ID>  (1) 
DB01202

>  <DATABASE_NAME>  (1) 
drugbank

>  <DRUGBANK_ID>  (1) 
DB01202

>  <DRUG_GROUPS>  (1) 
approved; investigational

>  <EXACT_MASS>  (1) 
170.105527699

>  <FORMULA>  (1) 
C8H14N2O2

>  <GENERIC_NAME>  (1) 
Levetiracetam

>  <INCHI_IDENTIFIER>  (1) 
InChI=1S/C8H14N2O2/c1-2-6(8(9)12)10-5-3-4-7(10)11/h6H,2-5H2,1H3,(H2,9,12)/t6-/m0/s1

>  <INCHI_KEY>  (1) 
HPHUVLMMVZITSG-LURJTMIESA-N

>  <JCHEM_ACCEPTOR_COUNT>  (1) 
2

>  <JCHEM_ATOM_COUNT>  (1) 
26

>  <JCHEM_AVERAGE_POLARIZABILITY>  (1) 
17.794020666665045

>  <JCHEM_BIOAVAILABILITY>  (1) 
1

>  <JCHEM_DONOR_COUNT>  (1) 
1

>  <JCHEM_FORMAL_CHARGE>  (1) 
0

>  <JCHEM_GHOSE_FILTER>  (1) 
0

>  <JCHEM_IUPAC>  (1) 
(2S)-2-(2-oxopyrrolidin-1-yl)butanamide

>  <JCHEM_LOGP>  (1) 
-0.5936059006666665

>  <JCHEM_MDDR_LIKE_RULE>  (1) 
0

>  <JCHEM_NUMBER_OF_RINGS>  (1) 
1

>  <JCHEM_PHYSIOLOGICAL_CHARGE>  (1) 
0

>  <JCHEM_PKA_STRONGEST_ACIDIC>  (1) 
16.08866335264141

>  <JCHEM_PKA_STRONGEST_BASIC>  (1) 
-1.5563529151976954

>  <JCHEM_POLAR_SURFACE_AREA>  (1) 
63.4

>  <JCHEM_REFRACTIVITY>  (1) 
44.0793

>  <JCHEM_ROTATABLE_BOND_COUNT>  (1) 
3

>  <JCHEM_RULE_OF_FIVE>  (1) 
1

>  <JCHEM_TRADITIONAL_IUPAC>  (1) 
levetiracetam

>  <JCHEM_VEBER_RULE>  (1) 
0

>  <MOLECULAR_WEIGHT>  (1) 
170.212

>  <PRODUCTS>  (1) 
Abbott-levetiracetam; Act Levetiracetam; Apo-levetiracetam; Auro-levetiracetam; Ava-levetiracetam; Bio-levetiracetam; Dom-levetiracetam; Elepsia XR; Jamp-levetiracetam; Keppra; Keppra XR; LEVETIRACETAM Extended-release; Levetiracetam; Levetiracetam Accord; Levetiracetam Actavis; Levetiracetam Actavis Group; Levetiracetam Extended-Release; Levetiracetam Extended-release; Levetiracetam Hospira; Levetiracetam Hospira Infusion; Levetiracetam Levetiracetam; Levetiracetam Sun; Levetiracetam Tablets; Levetiracetam Teva; Levetiracetam extended-release; Levetiractam; Matever; Mint-levetiracetam; Nat-levetiracetam; Novo-levetiracetam; Nu-levetiracetam; PHL-levetiracetam; PMS-levetiracetam; Priva-levetiracetam; Pro-levetiracetam - 250; Pro-levetiracetam - 500; Pro-levetiracetam - 750; Ran-levetiracetam; Roweepra; Roweepra XR; Sandoz Levetiracetam; Spritam; Torrent-levetiracetam; Van-levetiracetam

>  <SECONDARY_ACCESSION_NUMBERS>  (1) 
APRD01068

>  <SMILES>  (1) 
CC[C@H](N1CCCC1=O)C(N)=O

>  <SYNONYMS>  (1) 
Levetiracetam; Levetiracetame; Levetiracetamum

$$$$
