
     RDKit          2D

 45 47  0  0  1  0  0  0  0  0999 V2000
    5.6654   -0.5339    0.0000 S   0  0  0  0  0  0  0  0  0  0  0  0
    9.3466   -2.3118    0.0000 S   0  0  0  0  0  0  0  0  0  0  0  0
    7.2100   -0.9498    0.0000 O   0  0  0  0  0  0  0  0  0  0  0  0
    7.7938    1.2916    0.0000 O   0  0  0  0  0  0  0  0  0  0  0  0
    3.5219    0.7036    0.0000 O   0  0  0  0  0  0  0  0  0  0  0  0
    4.9508    2.3537    0.0000 O   0  0  0  0  0  0  0  0  0  0  0  0
    8.0337   -1.5555    0.0000 O   0  0  0  0  0  0  0  0  0  0  0  0
    6.3798    2.3537    0.0000 O   0  0  0  0  0  0  0  0  0  0  0  0
    2.8075    1.9412    0.0000 O   0  0  0  0  0  0  0  0  0  0  0  0
    6.3798    0.7036    0.0000 N   0  0  0  0  0  0  0  0  0  0  0  0
    8.0367   -0.1265    0.0000 N   0  0  0  0  0  0  0  0  0  0  0  0
    2.0930    0.7036    0.0000 N   0  0  0  0  0  0  0  0  0  0  0  0
    7.2117   -0.1248    0.0000 C   0  0  0  0  0  0  0  0  0  0  0  0
    6.3798   -0.1214    0.0000 C   0  0  0  0  0  0  0  0  0  0  0  0
    7.2117    0.7070    0.0000 C   0  0  0  0  0  0  0  0  0  0  0  0
    5.6654    1.1161    0.0000 C   0  0  0  0  0  0  0  0  0  0  0  0
    4.9508    0.7036    0.0000 C   0  0  0  0  0  0  0  0  0  0  0  0
    4.9508   -0.1214    0.0000 C   0  0  0  0  0  0  0  0  0  0  0  0
    4.2364    1.1161    0.0000 C   0  0  0  0  0  0  0  0  0  0  0  0
    8.4477   -0.8418    0.0000 C   0  0  0  0  0  0  0  0  0  0  0  0
    5.6654    1.9412    0.0000 C   0  0  0  0  0  0  0  0  0  0  0  0
    6.4947   -1.3608    0.0000 C   0  0  0  0  0  0  0  0  0  0  0  0
    9.2727   -0.8436    0.0000 C   0  0  0  0  0  0  0  0  0  0  0  0
    9.6837   -1.5588    0.0000 C   0  0  0  0  0  0  0  0  0  0  0  0
   10.5040   -1.6468    0.0000 C   0  0  0  0  0  0  0  0  0  0  0  0
    2.8075    1.1161    0.0000 C   0  0  0  0  0  0  0  0  0  0  0  0
   10.6739   -2.4541    0.0000 C   0  0  0  0  0  0  0  0  0  0  0  0
    9.9586   -2.8652    0.0000 C   0  0  0  0  0  0  0  0  0  0  0  0
    0.0000    0.0000    0.0000 H   0  0  0  0  0  0  0  0  0  0  0  0
    0.0000    0.0000    0.0000 H   0  0  0  0  0  0  0  0  0  0  0  0
    0.0000    0.0000    0.0000 H   0  0  0  0  0  0  0  0  0  0  0  0
    0.0000    0.0000    0.0000 H   0  0  0  0  0  0  0  0  0  0  0  0
    0.0000    0.0000    0.0000 H   0  0  0  0  0  0  0  0  0  0  0  0
    0.0000    0.0000    0.0000 H   0  0  0  0  0  0  0  0  0  0  0  0
    0.0000    0.0000    0.0000 H   0  0  0  0  0  0  0  0  0  0  0  0
    0.0000    0.0000    0.0000 H   0  0  0  0  0  0  0  0  0  0  0  0
    0.0000    0.0000    0.0000 H   0  0  0  0  0  0  0  0  0  0  0  0
    0.0000    0.0000    0.0000 H   0  0  0  0  0  0  0  0  0  0  0  0
    0.0000    0.0000    0.0000 H   0  0  0  0  0  0  0  0  0  0  0  0
    0.0000    0.0000    0.0000 H   0  0  0  0  0  0  0  0  0  0  0  0
    0.0000    0.0000    0.0000 H   0  0  0  0  0  0  0  0  0  0  0  0
    0.0000    0.0000    0.0000 H   0  0  0  0  0  0  0  0  0  0  0  0
    0.0000    0.0000    0.0000 H   0  0  0  0  0  0  0  0  0  0  0  0
    0.0000    0.0000    0.0000 H   0  0  0  0  0  0  0  0  0  0  0  0
    0.0000    0.0000    0.0000 H   0  0  0  0  0  0  0  0  0  0  0  0
  1 14  1  0
  1 18  1  0
  2 24  1  0
  2 28  1  0
 13  3  1  6
  3 22  1  0
  4 15  2  0
  5 19  1  0
  5 26  1  0
  6 21  1  0
  7 20  2  0
  8 21  2  0
  9 26  2  0
 10 14  1  0
 10 15  1  0
 10 16  1  0
 11 13  1  0
 11 20  1  0
 12 26  1  0
 13 14  1  0
 13 15  1  0
 16 17  2  0
 16 21  1  0
 17 18  1  0
 17 19  1  0
 20 23  1  0
 23 24  1  0
 24 25  2  0
 25 27  1  0
 27 28  2  0
  6 29  1  0
 11 30  1  0
 12 31  1  0
 12 32  1  0
 14 33  1  6
 18 34  1  0
 18 35  1  0
 19 36  1  0
 19 37  1  0
 22 38  1  0
 22 39  1  0
 22 40  1  0
 23 41  1  0
 23 42  1  0
 25 43  1  0
 27 44  1  0
 28 45  1  0
M  END
>  <ALOGPS_LOGP>  (1) 
0.22

>  <ALOGPS_LOGS>  (1) 
-3.34

>  <ALOGPS_SOLUBILITY>  (1) 
1.95e-01 g/l

>  <DATABASE_ID>  (1) 
DB01331

>  <DATABASE_NAME>  (1) 
drugbank

>  <DRUGBANK_ID>  (1) 
DB01331

>  <DRUG_GROUPS>  (1) 
approved

>  <EXACT_MASS>  (1) 
427.050791293

>  <FORMULA>  (1) 
C16H17N3O7S2

>  <GENERIC_NAME>  (1) 
Cefoxitin

>  <INCHI_IDENTIFIER>  (1) 
InChI=1S/C16H17N3O7S2/c1-25-16(18-10(20)5-9-3-2-4-27-9)13(23)19-11(12(21)22)8(6-26-15(17)24)7-28-14(16)19/h2-4,14H,5-7H2,1H3,(H2,17,24)(H,18,20)(H,21,22)/t14-,16+/m1/s1

>  <INCHI_KEY>  (1) 
WZOZEZRFJCJXNZ-ZBFHGGJFSA-N

>  <INTERNATIONAL_BRANDS>  (1) 
Cefoctin; Cenomicin; Mefoxitin

>  <JCHEM_ACCEPTOR_COUNT>  (1) 
6

>  <JCHEM_AVERAGE_POLARIZABILITY>  (1) 
39.46225088165139

>  <JCHEM_BIOAVAILABILITY>  (1) 
1

>  <JCHEM_DONOR_COUNT>  (1) 
3

>  <JCHEM_FORMAL_CHARGE>  (1) 
0

>  <JCHEM_GHOSE_FILTER>  (1) 
1

>  <JCHEM_IUPAC>  (1) 
(6R,7S)-3-[(carbamoyloxy)methyl]-7-methoxy-8-oxo-7-[2-(thiophen-2-yl)acetamido]-5-thia-1-azabicyclo[4.2.0]oct-2-ene-2-carboxylic acid

>  <JCHEM_LOGP>  (1) 
0.28835905266666645

>  <JCHEM_MDDR_LIKE_RULE>  (1) 
1

>  <JCHEM_NUMBER_OF_RINGS>  (1) 
3

>  <JCHEM_PHYSIOLOGICAL_CHARGE>  (1) 
-1

>  <JCHEM_PKA>  (1) 
10.968089942808199

>  <JCHEM_PKA_STRONGEST_ACIDIC>  (1) 
3.5866817620444715

>  <JCHEM_PKA_STRONGEST_BASIC>  (1) 
-3.8434448809018034

>  <JCHEM_POLAR_SURFACE_AREA>  (1) 
148.26

>  <JCHEM_REFRACTIVITY>  (1) 
98.76430000000003

>  <JCHEM_ROTATABLE_BOND_COUNT>  (1) 
8

>  <JCHEM_RULE_OF_FIVE>  (1) 
1

>  <JCHEM_TRADITIONAL_IUPAC>  (1) 
cefoxitin

>  <JCHEM_VEBER_RULE>  (1) 
0

>  <MOLECULAR_WEIGHT>  (1) 
427.452

>  <PRODUCTS>  (1) 
Cefoxitin; Cefoxitin and Dextrose; Cefoxitin for Injection; Cefoxitin for Injection, USP; Mefoxin; Mefoxin Inj 1gm/vial Add-vantag; Mefoxin Inj 2gm/vial Add-vantag; Mefoxin Pws 1gm/vial; Mefoxin Pws 2gm/vial; Mefoxin Pws Inj 10gm/vial

>  <SALTS>  (1) 
Cefoxitin sodium

>  <SECONDARY_ACCESSION_NUMBERS>  (1) 
EXPT00897

>  <SMILES>  (1) 
[H][C@]12SCC(COC(N)=O)=C(N1C(=O)[C@]2(NC(=O)CC1=CC=CS1)OC)C(O)=O

$$$$
