1157
     RDKit          2D

 50 52  0  0  0  0  0  0  0  0999 V2000
    8.5698   -1.9212    0.0000 O   0  0  0  0  0  0  0  0  0  0  0  0
   10.0083    0.5483    0.0000 O   0  0  0  0  0  0  0  0  0  0  0  0
   10.0019   -1.1017    0.0000 O   0  0  0  0  0  0  0  0  0  0  0  0
    7.1504    0.5593    0.0000 N   0  0  0  0  0  0  0  0  0  0  0  0
    3.5220    1.8195    0.0000 N   0  0  0  0  0  0  0  0  0  0  0  0
    2.8075    0.5820    0.0000 N   0  0  0  0  0  0  0  0  0  0  0  0
    3.5220   -0.6556    0.0000 N   0  0  0  0  0  0  0  0  0  0  0  0
    2.0930    1.8195    0.0000 N   0  0  0  0  0  0  0  0  0  0  0  0
    5.7214    0.5648    0.0000 C   0  0  0  0  0  0  0  0  0  0  0  0
    4.9740    0.1408    0.0000 C   0  0  0  0  0  0  0  0  0  0  0  0
    6.4343    0.1496    0.0000 C   0  0  0  0  0  0  0  0  0  0  0  0
    4.2364    0.5820    0.0000 C   0  0  0  0  0  0  0  0  0  0  0  0
    4.2364    1.4070    0.0000 C   0  0  0  0  0  0  0  0  0  0  0  0
    5.7214    1.4241    0.0000 C   0  0  0  0  0  0  0  0  0  0  0  0
    4.9740    1.8481    0.0000 C   0  0  0  0  0  0  0  0  0  0  0  0
    4.9644   -0.6841    0.0000 C   0  0  0  0  0  0  0  0  0  0  0  0
    7.8633    0.1440    0.0000 C   0  0  0  0  0  0  0  0  0  0  0  0
    3.5220    0.1695    0.0000 C   0  0  0  0  0  0  0  0  0  0  0  0
    8.5793    0.5537    0.0000 C   0  0  0  0  0  0  0  0  0  0  0  0
    7.8601   -0.6810    0.0000 C   0  0  0  0  0  0  0  0  0  0  0  0
    8.5730   -1.0963    0.0000 C   0  0  0  0  0  0  0  0  0  0  0  0
    9.2922    0.1385    0.0000 C   0  0  0  0  0  0  0  0  0  0  0  0
    9.2890   -0.6865    0.0000 C   0  0  0  0  0  0  0  0  0  0  0  0
    2.8075    1.4070    0.0000 C   0  0  0  0  0  0  0  0  0  0  0  0
    7.8537   -2.3310    0.0000 C   0  0  0  0  0  0  0  0  0  0  0  0
   10.0115    1.3733    0.0000 C   0  0  0  0  0  0  0  0  0  0  0  0
   10.7180   -0.6920    0.0000 C   0  0  0  0  0  0  0  0  0  0  0  0
    0.0000    0.0000    0.0000 H   0  0  0  0  0  0  0  0  0  0  0  0
    0.0000    0.0000    0.0000 H   0  0  0  0  0  0  0  0  0  0  0  0
    0.0000    0.0000    0.0000 H   0  0  0  0  0  0  0  0  0  0  0  0
    0.0000    0.0000    0.0000 H   0  0  0  0  0  0  0  0  0  0  0  0
    0.0000    0.0000    0.0000 H   0  0  0  0  0  0  0  0  0  0  0  0
    0.0000    0.0000    0.0000 H   0  0  0  0  0  0  0  0  0  0  0  0
    0.0000    0.0000    0.0000 H   0  0  0  0  0  0  0  0  0  0  0  0
    0.0000    0.0000    0.0000 H   0  0  0  0  0  0  0  0  0  0  0  0
    0.0000    0.0000    0.0000 H   0  0  0  0  0  0  0  0  0  0  0  0
    0.0000    0.0000    0.0000 H   0  0  0  0  0  0  0  0  0  0  0  0
    0.0000    0.0000    0.0000 H   0  0  0  0  0  0  0  0  0  0  0  0
    0.0000    0.0000    0.0000 H   0  0  0  0  0  0  0  0  0  0  0  0
    0.0000    0.0000    0.0000 H   0  0  0  0  0  0  0  0  0  0  0  0
    0.0000    0.0000    0.0000 H   0  0  0  0  0  0  0  0  0  0  0  0
    0.0000    0.0000    0.0000 H   0  0  0  0  0  0  0  0  0  0  0  0
    0.0000    0.0000    0.0000 H   0  0  0  0  0  0  0  0  0  0  0  0
    0.0000    0.0000    0.0000 H   0  0  0  0  0  0  0  0  0  0  0  0
    0.0000    0.0000    0.0000 H   0  0  0  0  0  0  0  0  0  0  0  0
    0.0000    0.0000    0.0000 H   0  0  0  0  0  0  0  0  0  0  0  0
    0.0000    0.0000    0.0000 H   0  0  0  0  0  0  0  0  0  0  0  0
    0.0000    0.0000    0.0000 H   0  0  0  0  0  0  0  0  0  0  0  0
    0.0000    0.0000    0.0000 H   0  0  0  0  0  0  0  0  0  0  0  0
    0.0000    0.0000    0.0000 H   0  0  0  0  0  0  0  0  0  0  0  0
  1 21  1  0
  1 25  1  0
  2 22  1  0
  2 26  1  0
  3 23  1  0
  3 27  1  0
  4 11  1  0
  4 17  1  0
  5 13  2  0
  5 24  1  0
  6 18  1  0
  6 24  2  0
  7 18  1  0
  8 24  1  0
  9 10  2  0
  9 11  1  0
  9 14  1  0
 10 12  1  0
 10 16  1  0
 12 13  1  0
 12 18  2  0
 13 15  1  0
 14 15  2  0
 17 19  2  0
 17 20  1  0
 19 22  1  0
 20 21  2  0
 21 23  1  0
 22 23  2  0
  4 28  1  0
  7 29  1  0
  7 30  1  0
  8 31  1  0
  8 32  1  0
 11 33  1  0
 11 34  1  0
 14 35  1  0
 15 36  1  0
 16 37  1  0
 16 38  1  0
 16 39  1  0
 19 40  1  0
 20 41  1  0
 25 42  1  0
 25 43  1  0
 25 44  1  0
 26 45  1  0
 26 46  1  0
 26 47  1  0
 27 48  1  0
 27 49  1  0
 27 50  1  0
M  END
>  <ALOGPS_LOGP>  (1) 
2.36

>  <ALOGPS_LOGS>  (1) 
-4.08

>  <ALOGPS_SOLUBILITY>  (1) 
3.09e-02 g/l

>  <DATABASE_ID>  (1) 
DB01157

>  <DATABASE_NAME>  (1) 
drugbank

>  <DRUGBANK_ID>  (1) 
DB01157

>  <DRUG_GROUPS>  (1) 
approved; investigational

>  <EXACT_MASS>  (1) 
369.180089627

>  <FORMULA>  (1) 
C19H23N5O3

>  <GENERIC_NAME>  (1) 
Trimetrexate

>  <INCHI_IDENTIFIER>  (1) 
InChI=1S/C19H23N5O3/c1-10-11(5-6-13-16(10)18(20)24-19(21)23-13)9-22-12-7-14(25-2)17(27-4)15(8-12)26-3/h5-8,22H,9H2,1-4H3,(H4,20,21,23,24)

>  <INCHI_KEY>  (1) 
NOYPYLRCIDNJJB-UHFFFAOYSA-N

>  <JCHEM_ACCEPTOR_COUNT>  (1) 
8

>  <JCHEM_AVERAGE_POLARIZABILITY>  (1) 
40.23957114843252

>  <JCHEM_BIOAVAILABILITY>  (1) 
1

>  <JCHEM_DONOR_COUNT>  (1) 
3

>  <JCHEM_FORMAL_CHARGE>  (1) 
0

>  <JCHEM_GHOSE_FILTER>  (1) 
1

>  <JCHEM_IUPAC>  (1) 
5-methyl-6-{[(3,4,5-trimethoxyphenyl)amino]methyl}quinazoline-2,4-diamine

>  <JCHEM_LOGP>  (1) 
2.2781130193333325

>  <JCHEM_MDDR_LIKE_RULE>  (1) 
1

>  <JCHEM_NUMBER_OF_RINGS>  (1) 
3

>  <JCHEM_PHYSIOLOGICAL_CHARGE>  (1) 
1

>  <JCHEM_PKA_STRONGEST_ACIDIC>  (1) 
17.038573321274995

>  <JCHEM_PKA_STRONGEST_BASIC>  (1) 
7.539544844201364

>  <JCHEM_POLAR_SURFACE_AREA>  (1) 
117.53999999999999

>  <JCHEM_REFRACTIVITY>  (1) 
107.69800000000001

>  <JCHEM_ROTATABLE_BOND_COUNT>  (1) 
6

>  <JCHEM_RULE_OF_FIVE>  (1) 
1

>  <JCHEM_TRADITIONAL_IUPAC>  (1) 
trimetrexate

>  <JCHEM_VEBER_RULE>  (1) 
0

>  <MOLECULAR_WEIGHT>  (1) 
369.4176

>  <PRODUCTS>  (1) 
Neutrexin Pws IV 25mg/vial

>  <SALTS>  (1) 
Trimetrexate glucuronate

>  <SECONDARY_ACCESSION_NUMBERS>  (1) 
APRD00268

>  <SMILES>  (1) 
COC1=CC(NCC2=C(C)C3=C(C=C2)N=C(N)N=C3N)=CC(OC)=C1OC

>  <SYNONYMS>  (1) 
Trimetrexato; Trimetrexatum

$$$$
