1039
     RDKit          2D

 46 47  0  0  0  0  0  0  0  0999 V2000
    7.3659    3.9188    0.0000 Cl  0  0  0  0  0  0  0  0  0  0  0  0
    4.5080   -1.0313    0.0000 O   0  0  0  0  0  0  0  0  0  0  0  0
    3.0791   -2.6813    0.0000 O   0  0  0  0  0  0  0  0  0  0  0  0
    2.3645   -1.4438    0.0000 O   0  0  0  0  0  0  0  0  0  0  0  0
    3.7935    2.6813    0.0000 O   0  0  0  0  0  0  0  0  0  0  0  0
    3.7935   -1.4438    0.0000 C   0  0  0  0  0  0  0  0  0  0  0  0
    4.2060   -2.1582    0.0000 C   0  0  0  0  0  0  0  0  0  0  0  0
    3.3810   -0.7293    0.0000 C   0  0  0  0  0  0  0  0  0  0  0  0
    3.0791   -1.8563    0.0000 C   0  0  0  0  0  0  0  0  0  0  0  0
    2.3645   -3.0938    0.0000 C   0  0  0  0  0  0  0  0  0  0  0  0
    4.5080   -0.2063    0.0000 C   0  0  0  0  0  0  0  0  0  0  0  0
    5.2224    0.2063    0.0000 C   0  0  0  0  0  0  0  0  0  0  0  0
    3.7935    0.2063    0.0000 C   0  0  0  0  0  0  0  0  0  0  0  0
    4.5080    1.4438    0.0000 C   0  0  0  0  0  0  0  0  0  0  0  0
    2.3645   -3.9188    0.0000 C   0  0  0  0  0  0  0  0  0  0  0  0
    1.6500   -2.6813    0.0000 C   0  0  0  0  0  0  0  0  0  0  0  0
    5.2224    1.0313    0.0000 C   0  0  0  0  0  0  0  0  0  0  0  0
    3.7935    1.0313    0.0000 C   0  0  0  0  0  0  0  0  0  0  0  0
    4.5080    2.2688    0.0000 C   0  0  0  0  0  0  0  0  0  0  0  0
    5.2224    2.6813    0.0000 C   0  0  0  0  0  0  0  0  0  0  0  0
    5.2224    3.5063    0.0000 C   0  0  0  0  0  0  0  0  0  0  0  0
    5.9370    2.2688    0.0000 C   0  0  0  0  0  0  0  0  0  0  0  0
    5.9370    3.9188    0.0000 C   0  0  0  0  0  0  0  0  0  0  0  0
    6.6515    2.6813    0.0000 C   0  0  0  0  0  0  0  0  0  0  0  0
    6.6515    3.5063    0.0000 C   0  0  0  0  0  0  0  0  0  0  0  0
    0.0000    0.0000    0.0000 H   0  0  0  0  0  0  0  0  0  0  0  0
    0.0000    0.0000    0.0000 H   0  0  0  0  0  0  0  0  0  0  0  0
    0.0000    0.0000    0.0000 H   0  0  0  0  0  0  0  0  0  0  0  0
    0.0000    0.0000    0.0000 H   0  0  0  0  0  0  0  0  0  0  0  0
    0.0000    0.0000    0.0000 H   0  0  0  0  0  0  0  0  0  0  0  0
    0.0000    0.0000    0.0000 H   0  0  0  0  0  0  0  0  0  0  0  0
    0.0000    0.0000    0.0000 H   0  0  0  0  0  0  0  0  0  0  0  0
    0.0000    0.0000    0.0000 H   0  0  0  0  0  0  0  0  0  0  0  0
    0.0000    0.0000    0.0000 H   0  0  0  0  0  0  0  0  0  0  0  0
    0.0000    0.0000    0.0000 H   0  0  0  0  0  0  0  0  0  0  0  0
    0.0000    0.0000    0.0000 H   0  0  0  0  0  0  0  0  0  0  0  0
    0.0000    0.0000    0.0000 H   0  0  0  0  0  0  0  0  0  0  0  0
    0.0000    0.0000    0.0000 H   0  0  0  0  0  0  0  0  0  0  0  0
    0.0000    0.0000    0.0000 H   0  0  0  0  0  0  0  0  0  0  0  0
    0.0000    0.0000    0.0000 H   0  0  0  0  0  0  0  0  0  0  0  0
    0.0000    0.0000    0.0000 H   0  0  0  0  0  0  0  0  0  0  0  0
    0.0000    0.0000    0.0000 H   0  0  0  0  0  0  0  0  0  0  0  0
    0.0000    0.0000    0.0000 H   0  0  0  0  0  0  0  0  0  0  0  0
    0.0000    0.0000    0.0000 H   0  0  0  0  0  0  0  0  0  0  0  0
    0.0000    0.0000    0.0000 H   0  0  0  0  0  0  0  0  0  0  0  0
    0.0000    0.0000    0.0000 H   0  0  0  0  0  0  0  0  0  0  0  0
  1 25  1  0
  2  6  1  0
  2 11  1  0
  3  9  1  0
  3 10  1  0
  4  9  2  0
  5 19  2  0
  6  7  1  0
  6  8  1  0
  6  9  1  0
 10 15  1  0
 10 16  1  0
 11 12  2  0
 11 13  1  0
 12 17  1  0
 13 18  2  0
 14 17  2  0
 14 18  1  0
 14 19  1  0
 19 20  1  0
 20 21  2  0
 20 22  1  0
 21 23  1  0
 22 24  2  0
 23 25  2  0
 24 25  1  0
  7 26  1  0
  7 27  1  0
  7 28  1  0
  8 29  1  0
  8 30  1  0
  8 31  1  0
 10 32  1  0
 12 33  1  0
 13 34  1  0
 15 35  1  0
 15 36  1  0
 15 37  1  0
 16 38  1  0
 16 39  1  0
 16 40  1  0
 17 41  1  0
 18 42  1  0
 21 43  1  0
 22 44  1  0
 23 45  1  0
 24 46  1  0
M  END
>  <ALOGPS_LOGP>  (1) 
4.86

>  <ALOGPS_LOGS>  (1) 
-5.71

>  <ALOGPS_SOLUBILITY>  (1) 
7.07e-04 g/l

>  <DATABASE_ID>  (1) 
DB01039

>  <DATABASE_NAME>  (1) 
drugbank

>  <DRUGBANK_ID>  (1) 
DB01039

>  <DRUG_GROUPS>  (1) 
approved

>  <EXACT_MASS>  (1) 
360.112836867

>  <FORMULA>  (1) 
C20H21ClO4

>  <GENERIC_NAME>  (1) 
Fenofibrate

>  <INCHI_IDENTIFIER>  (1) 
InChI=1S/C20H21ClO4/c1-13(2)24-19(23)20(3,4)25-17-11-7-15(8-12-17)18(22)14-5-9-16(21)10-6-14/h5-13H,1-4H3

>  <INCHI_KEY>  (1) 
YMTINGFKWWXKFG-UHFFFAOYSA-N

>  <INTERNATIONAL_BRANDS>  (1) 
Fenogal; Lipanthyl; Lipidil

>  <JCHEM_ACCEPTOR_COUNT>  (1) 
3

>  <JCHEM_AVERAGE_POLARIZABILITY>  (1) 
38.154697685973055

>  <JCHEM_BIOAVAILABILITY>  (1) 
1

>  <JCHEM_DONOR_COUNT>  (1) 
0

>  <JCHEM_FORMAL_CHARGE>  (1) 
0

>  <JCHEM_GHOSE_FILTER>  (1) 
1

>  <JCHEM_IUPAC>  (1) 
propan-2-yl 2-[4-(4-chlorobenzoyl)phenoxy]-2-methylpropanoate

>  <JCHEM_LOGP>  (1) 
5.277762736

>  <JCHEM_MDDR_LIKE_RULE>  (1) 
0

>  <JCHEM_NUMBER_OF_RINGS>  (1) 
2

>  <JCHEM_PHYSIOLOGICAL_CHARGE>  (1) 
0

>  <JCHEM_PKA_STRONGEST_BASIC>  (1) 
-4.930127269600433

>  <JCHEM_POLAR_SURFACE_AREA>  (1) 
52.6

>  <JCHEM_REFRACTIVITY>  (1) 
97.1298

>  <JCHEM_ROTATABLE_BOND_COUNT>  (1) 
7

>  <JCHEM_RULE_OF_FIVE>  (1) 
0

>  <JCHEM_TRADITIONAL_IUPAC>  (1) 
antara

>  <JCHEM_VEBER_RULE>  (1) 
0

>  <MOLECULAR_WEIGHT>  (1) 
360.831

>  <PRODUCTS>  (1) 
Antara; Apo-feno-micro; Apo-feno-micro Capsules; Apo-feno-super; Apo-fenofibrate; Ava-fenofibrate Micro; Cholib; Dom-fenofibrate Micro; Dom-fenofibrate Supra; Feno-micro-200; Fenofibrate; Fenofibrate Micro; Fenofibrate-S; Fenoglide; Fenomax; Lipidil Cap 100mg; Lipidil Ez; Lipidil Micro; Lipidil Micro - Cap 67mg; Lipidil Supra; Lipidil Supra 100 mg; Lipofen; Lofibra; Mint-fenofibrate E; Mylan-fenofibrate Micro; Novo-fenofibrate; Novo-fenofibrate Micronized; Ntp-fenofibrate-S; Nu-feno-micro; Nu-fenofibrate; PHL-fenofibrate Micro; PHL-fenofibrate Supra; PMS-fenofibrate; PMS-fenofibrate Micro; PMS-fenofibrate Supra; Pro-feno-super - 100; Pro-feno-super - 160; Q-fenofibrate Micro; Ran-fenofibrate E; Ran-fenofibrate S; Ratio-fenofibrate Mc; Riva-fenofibrate Micro; Sandoz Fenofibrate E; Sandoz Fenofibrate S; Teva-fenofibrate-S; Tricor; Triglide

>  <SECONDARY_ACCESSION_NUMBERS>  (1) 
APRD00405; DB09545

>  <SMILES>  (1) 
CC(C)OC(=O)C(C)(C)OC1=CC=C(C=C1)C(=O)C1=CC=C(Cl)C=C1

>  <SYNONYMS>  (1) 
2-(4-(4-Chlorobenzoyl)phenoxy)-2-methylpropanoic acid 1-methylethyl ester; Fenofibrato; Fenofibratum; Finofibrate; FNF; Isopropyl (4'-(p-chlorobenzoyl)-2-phenoxy-2-methyl)propionate; Isopropyl 2-(4-(4-chlorobenzoyl)phenoxy)-2-methylpropionate; Procetofen

$$$$
