
     RDKit          2D

 71 74  0  0  0  0  0  0  0  0999 V2000
   -0.0315    0.0655    0.0000 C   0  0  0  0  0  0  0  0  0  0  0  0
    0.7554    0.3133    0.0000 C   0  0  0  0  0  0  0  0  0  0  0  0
   -2.1836   -1.1586    0.0000 C   0  0  0  0  0  0  0  0  0  0  0  0
   -0.7554   -1.1586    0.0000 C   0  0  0  0  0  0  0  0  0  0  0  0
   -0.0412   -0.7505    0.0000 C   0  0  0  0  0  0  0  0  0  0  0  0
   -1.4694   -0.7456    0.0000 C   0  0  0  0  0  0  0  0  0  0  0  0
   -2.1836   -1.9844    0.0000 C   0  0  0  0  0  0  0  0  0  0  0  0
   -0.7457    0.4881    0.0000 C   0  0  0  0  0  0  0  0  0  0  0  0
   -1.4694    0.0801    0.0000 C   0  0  0  0  0  0  0  0  0  0  0  0
   -2.8977   -0.7456    0.0000 C   0  0  0  0  0  0  0  0  0  0  0  0
    0.7457    1.1440    0.0000 C   0  0  0  0  0  0  0  0  0  0  0  0
   -2.8977   -2.3974    0.0000 C   0  0  0  0  0  0  0  0  0  0  0  0
    1.4694    0.7360    0.0000 O   0  0  0  0  0  0  0  0  0  0  0  0
    2.1885    0.3278    0.0000 C   0  0  0  0  0  0  0  0  0  0  0  0
    1.2266   -0.3570    0.0000 C   0  0  0  0  0  0  0  0  0  0  0  0
    0.7408   -1.0176    0.0000 C   0  0  0  0  0  0  0  0  0  0  0  0
   -0.7603   -1.9893    0.0000 C   0  0  0  0  0  0  0  0  0  0  0  0
   -3.6118   -1.1586    0.0000 C   0  0  0  0  0  0  0  0  0  0  0  0
   -3.6118   -1.9844    0.0000 C   0  0  0  0  0  0  0  0  0  0  0  0
   -1.4743   -2.3974    0.0000 C   0  0  0  0  0  0  0  0  0  0  0  0
    2.8880    1.5715    0.0000 C   0  0  0  0  0  0  0  0  0  0  0  0
    1.4598    1.5666    0.0000 C   0  0  0  0  0  0  0  0  0  0  0  0
    2.1885   -0.4978    0.0000 O   0  0  0  0  0  0  0  0  0  0  0  0
    0.0315    1.5520    0.0000 O   0  0  0  0  0  0  0  0  0  0  0  0
    2.1739    1.1586    0.0000 O   0  0  0  0  0  0  0  0  0  0  0  0
    2.8831    2.3974    0.0000 O   0  0  0  0  0  0  0  0  0  0  0  0
   -4.3260   -2.3925    0.0000 O   0  0  0  0  0  0  0  0  0  0  0  0
   -0.0412    0.8963    0.0000 C   0  0  0  0  0  0  0  0  0  0  0  0
   -2.1836    0.5027    0.0000 O   0  0  0  0  0  0  0  0  0  0  0  0
    2.8977    0.7505    0.0000 O   0  0  0  0  0  0  0  0  0  0  0  0
   -2.1885   -0.3278    0.0000 C   0  0  0  0  0  0  0  0  0  0  0  0
    3.6022    1.1635    0.0000 C   0  0  0  0  0  0  0  0  0  0  0  0
    3.6167    0.3424    0.0000 C   0  0  0  0  0  0  0  0  0  0  0  0
    4.3163    1.5812    0.0000 C   0  0  0  0  0  0  0  0  0  0  0  0
    4.3260    0.7651    0.0000 C   0  0  0  0  0  0  0  0  0  0  0  0
    0.0000    0.0000    0.0000 H   0  0  0  0  0  0  0  0  0  0  0  0
    0.0000    0.0000    0.0000 H   0  0  0  0  0  0  0  0  0  0  0  0
    0.0000    0.0000    0.0000 H   0  0  0  0  0  0  0  0  0  0  0  0
    0.0000    0.0000    0.0000 H   0  0  0  0  0  0  0  0  0  0  0  0
    0.0000    0.0000    0.0000 H   0  0  0  0  0  0  0  0  0  0  0  0
    0.0000    0.0000    0.0000 H   0  0  0  0  0  0  0  0  0  0  0  0
    0.0000    0.0000    0.0000 H   0  0  0  0  0  0  0  0  0  0  0  0
    0.0000    0.0000    0.0000 H   0  0  0  0  0  0  0  0  0  0  0  0
    0.0000    0.0000    0.0000 H   0  0  0  0  0  0  0  0  0  0  0  0
    0.0000    0.0000    0.0000 H   0  0  0  0  0  0  0  0  0  0  0  0
    0.0000    0.0000    0.0000 H   0  0  0  0  0  0  0  0  0  0  0  0
    0.0000    0.0000    0.0000 H   0  0  0  0  0  0  0  0  0  0  0  0
    0.0000    0.0000    0.0000 H   0  0  0  0  0  0  0  0  0  0  0  0
    0.0000    0.0000    0.0000 H   0  0  0  0  0  0  0  0  0  0  0  0
    0.0000    0.0000    0.0000 H   0  0  0  0  0  0  0  0  0  0  0  0
    0.0000    0.0000    0.0000 H   0  0  0  0  0  0  0  0  0  0  0  0
    0.0000    0.0000    0.0000 H   0  0  0  0  0  0  0  0  0  0  0  0
    0.0000    0.0000    0.0000 H   0  0  0  0  0  0  0  0  0  0  0  0
    0.0000    0.0000    0.0000 H   0  0  0  0  0  0  0  0  0  0  0  0
    0.0000    0.0000    0.0000 H   0  0  0  0  0  0  0  0  0  0  0  0
    0.0000    0.0000    0.0000 H   0  0  0  0  0  0  0  0  0  0  0  0
    0.0000    0.0000    0.0000 H   0  0  0  0  0  0  0  0  0  0  0  0
    0.0000    0.0000    0.0000 H   0  0  0  0  0  0  0  0  0  0  0  0
    0.0000    0.0000    0.0000 H   0  0  0  0  0  0  0  0  0  0  0  0
    0.0000    0.0000    0.0000 H   0  0  0  0  0  0  0  0  0  0  0  0
    0.0000    0.0000    0.0000 H   0  0  0  0  0  0  0  0  0  0  0  0
    0.0000    0.0000    0.0000 H   0  0  0  0  0  0  0  0  0  0  0  0
    0.0000    0.0000    0.0000 H   0  0  0  0  0  0  0  0  0  0  0  0
    0.0000    0.0000    0.0000 H   0  0  0  0  0  0  0  0  0  0  0  0
    0.0000    0.0000    0.0000 H   0  0  0  0  0  0  0  0  0  0  0  0
    0.0000    0.0000    0.0000 H   0  0  0  0  0  0  0  0  0  0  0  0
    0.0000    0.0000    0.0000 H   0  0  0  0  0  0  0  0  0  0  0  0
    0.0000    0.0000    0.0000 H   0  0  0  0  0  0  0  0  0  0  0  0
    0.0000    0.0000    0.0000 H   0  0  0  0  0  0  0  0  0  0  0  0
    0.0000    0.0000    0.0000 H   0  0  0  0  0  0  0  0  0  0  0  0
    0.0000    0.0000    0.0000 H   0  0  0  0  0  0  0  0  0  0  0  0
  2  1  1  0
  3  6  1  0
  4  5  1  0
  5  1  1  0
  6  9  1  0
  7  3  1  0
  8  1  1  0
  9  8  1  0
 10  3  1  0
  2 11  1  1
 12  7  2  0
  2 13  1  0
 14 13  1  0
 15  2  1  0
 16  5  1  0
 17  4  1  0
 18 10  2  0
 19 18  1  0
 20 17  1  0
 21 25  1  0
 22 11  1  0
 23 14  2  0
 24 11  2  0
 25 22  1  0
 26 21  2  0
 27 19  2  0
  1 28  1  1
  9 29  1  6
 30 14  1  0
  3 31  1  1
 32 21  1  0
 33 30  1  0
 34 32  1  0
 35 33  1  0
 15 16  1  0
  6  4  1  0
 20  7  1  0
 19 12  1  0
  4 36  1  1
  5 37  1  6
  6 38  1  6
  8 39  1  0
  8 40  1  0
  9 41  1  0
 10 42  1  0
 12 43  1  0
 15 44  1  0
 15 45  1  0
 16 46  1  0
 16 47  1  0
 17 48  1  0
 17 49  1  0
 18 50  1  0
 20 51  1  0
 20 52  1  0
 22 53  1  0
 22 54  1  0
 28 55  1  0
 28 56  1  0
 28 57  1  0
 29 58  1  0
 31 59  1  0
 31 60  1  0
 31 61  1  0
 32 62  1  0
 32 63  1  0
 33 64  1  0
 33 65  1  0
 34 66  1  0
 34 67  1  0
 34 68  1  0
 35 69  1  0
 35 70  1  0
 35 71  1  0
M  END
>  <ALOGPS_LOGP>  (1) 
3.08

>  <ALOGPS_LOGS>  (1) 
-4.94

>  <ALOGPS_SOLUBILITY>  (1) 
5.62e-03 g/l

>  <DATABASE_ID>  (1) 
DB01130

>  <DATABASE_NAME>  (1) 
drugbank

>  <DRUGBANK_ID>  (1) 
DB01130

>  <DRUG_GROUPS>  (1) 
approved

>  <EXACT_MASS>  (1) 
488.241018119

>  <FORMULA>  (1) 
C27H36O8

>  <GENERIC_NAME>  (1) 
Prednicarbate

>  <INCHI_IDENTIFIER>  (1) 
InChI=1S/C27H36O8/c1-5-22(31)34-15-21(30)27(35-24(32)33-6-2)12-10-19-18-8-7-16-13-17(28)9-11-25(16,3)23(18)20(29)14-26(19,27)4/h9,11,13,18-20,23,29H,5-8,10,12,14-15H2,1-4H3/t18-,19-,20-,23+,25-,26-,27-/m0/s1

>  <INCHI_KEY>  (1) 
FNPXMHRZILFCKX-KAJVQRHHSA-N

>  <JCHEM_ACCEPTOR_COUNT>  (1) 
6

>  <JCHEM_ATOM_COUNT>  (1) 
71

>  <JCHEM_AVERAGE_POLARIZABILITY>  (1) 
52.4316245824717

>  <JCHEM_BIOAVAILABILITY>  (1) 
1

>  <JCHEM_DONOR_COUNT>  (1) 
1

>  <JCHEM_FORMAL_CHARGE>  (1) 
0

>  <JCHEM_GHOSE_FILTER>  (1) 
0

>  <JCHEM_IUPAC>  (1) 
2-[(1S,2R,10S,11S,14R,15S,17S)-14-[(ethoxycarbonyl)oxy]-17-hydroxy-2,15-dimethyl-5-oxotetracyclo[8.7.0.0²,⁷.0¹¹,¹⁵]heptadeca-3,6-dien-14-yl]-2-oxoethyl propanoate

>  <JCHEM_LOGP>  (1) 
3.8318756826666673

>  <JCHEM_MDDR_LIKE_RULE>  (1) 
1

>  <JCHEM_NUMBER_OF_RINGS>  (1) 
4

>  <JCHEM_PHYSIOLOGICAL_CHARGE>  (1) 
0

>  <JCHEM_PKA>  (1) 
15.838618856593936

>  <JCHEM_PKA_STRONGEST_ACIDIC>  (1) 
14.829222173305045

>  <JCHEM_PKA_STRONGEST_BASIC>  (1) 
-2.8513633014644526

>  <JCHEM_POLAR_SURFACE_AREA>  (1) 
116.20000000000002

>  <JCHEM_REFRACTIVITY>  (1) 
127.79539999999994

>  <JCHEM_ROTATABLE_BOND_COUNT>  (1) 
9

>  <JCHEM_RULE_OF_FIVE>  (1) 
1

>  <JCHEM_TRADITIONAL_IUPAC>  (1) 
batmen

>  <JCHEM_VEBER_RULE>  (1) 
0

>  <MOLECULAR_WEIGHT>  (1) 
488.577

>  <PRODUCTS>  (1) 
Dermatop; Dermatop Emollient Cream; Dermatop Ointment; Prednicarbate

>  <SECONDARY_ACCESSION_NUMBERS>  (1) 
APRD01197

>  <SMILES>  (1) 
[H][C@@]12CC[C@](OC(=O)OCC)(C(=O)COC(=O)CC)[C@@]1(C)C[C@H](O)[C@@]1([H])[C@@]2([H])CCC2=CC(=O)C=C[C@]12C

$$$$
