1495
     RDKit          2D

 46 45  0  0  1  0  0  0  0  0999 V2000
    5.7656    6.9874    0.0000 Cl  0  0  0  0  0  0  0  0  0  0  0  0
    4.9405    8.4164    0.0000 Cl  0  0  0  0  0  0  0  0  0  0  0  0
    4.6386    7.2894    0.0000 Cl  0  0  0  0  0  0  0  0  0  0  0  0
    1.1270    3.4937    0.0000 Cl  0  0  0  0  0  0  0  0  0  0  0  0
    0.3020    4.9227    0.0000 Cl  0  0  0  0  0  0  0  0  0  0  0  0
    0.0000    3.7957    0.0000 Cl  0  0  0  0  0  0  0  0  0  0  0  0
    4.2365    3.2166    0.0000 O   0  0  0  0  0  0  0  0  0  0  0  0
    6.7821    7.7020    0.0000 O   0  0  0  0  0  0  0  0  0  0  0  0
    6.0676    8.9395    0.0000 O   0  0  0  0  0  0  0  0  0  0  0  0
    2.1435    4.2082    0.0000 O   0  0  0  0  0  0  0  0  0  0  0  0
    1.4290    5.4457    0.0000 O   0  0  0  0  0  0  0  0  0  0  0  0
    6.3560    3.4715    0.0000 N   0  0  0  0  0  0  0  0  0  0  0  0
    5.6886    2.9866    0.0000 N   0  0  0  0  0  0  0  0  0  0  0  0
    6.1011    4.2561    0.0000 C   0  0  0  0  0  0  0  0  0  0  0  0
    5.6886    2.1615    0.0000 C   0  0  0  0  0  0  0  0  0  0  0  0
    5.0211    3.4715    0.0000 C   0  0  0  0  0  0  0  0  0  0  0  0
    5.2761    4.2561    0.0000 C   0  0  0  0  0  0  0  0  0  0  0  0
    7.1407    3.2166    0.0000 C   0  0  0  0  0  0  0  0  0  0  0  0
    6.5860    4.9236    0.0000 C   0  0  0  0  0  0  0  0  0  0  0  0
    6.4030    1.7490    0.0000 C   0  0  0  0  0  0  0  0  0  0  0  0
    4.9741    1.7490    0.0000 C   0  0  0  0  0  0  0  0  0  0  0  0
    6.4030    0.9240    0.0000 C   0  0  0  0  0  0  0  0  0  0  0  0
    4.9741    0.9240    0.0000 C   0  0  0  0  0  0  0  0  0  0  0  0
    5.6886    0.5115    0.0000 C   0  0  0  0  0  0  0  0  0  0  0  0
    6.0676    8.1145    0.0000 C   0  0  0  0  0  0  0  0  0  0  0  0
    1.4290    4.6207    0.0000 C   0  0  0  0  0  0  0  0  0  0  0  0
    5.3530    7.7020    0.0000 C   0  0  0  0  0  0  0  0  0  0  0  0
    0.7145    4.2082    0.0000 C   0  0  0  0  0  0  0  0  0  0  0  0
    0.0000    0.0000    0.0000 H   0  0  0  0  0  0  0  0  0  0  0  0
    0.0000    0.0000    0.0000 H   0  0  0  0  0  0  0  0  0  0  0  0
    0.0000    0.0000    0.0000 H   0  0  0  0  0  0  0  0  0  0  0  0
    0.0000    0.0000    0.0000 H   0  0  0  0  0  0  0  0  0  0  0  0
    0.0000    0.0000    0.0000 H   0  0  0  0  0  0  0  0  0  0  0  0
    0.0000    0.0000    0.0000 H   0  0  0  0  0  0  0  0  0  0  0  0
    0.0000    0.0000    0.0000 H   0  0  0  0  0  0  0  0  0  0  0  0
    0.0000    0.0000    0.0000 H   0  0  0  0  0  0  0  0  0  0  0  0
    0.0000    0.0000    0.0000 H   0  0  0  0  0  0  0  0  0  0  0  0
    0.0000    0.0000    0.0000 H   0  0  0  0  0  0  0  0  0  0  0  0
    0.0000    0.0000    0.0000 H   0  0  0  0  0  0  0  0  0  0  0  0
    0.0000    0.0000    0.0000 H   0  0  0  0  0  0  0  0  0  0  0  0
    0.0000    0.0000    0.0000 H   0  0  0  0  0  0  0  0  0  0  0  0
    0.0000    0.0000    0.0000 H   0  0  0  0  0  0  0  0  0  0  0  0
    0.0000    0.0000    0.0000 H   0  0  0  0  0  0  0  0  0  0  0  0
    0.0000    0.0000    0.0000 H   0  0  0  0  0  0  0  0  0  0  0  0
    0.0000    0.0000    0.0000 H   0  0  0  0  0  0  0  0  0  0  0  0
    0.0000    0.0000    0.0000 H   0  0  0  0  0  0  0  0  0  0  0  0
  1 27  1  0
  2 27  1  0
  3 27  1  0
  4 28  1  0
  5 28  1  0
  6 28  1  0
  7 16  2  0
  8 25  1  0
  9 25  1  0
 10 26  1  0
 11 26  1  0
 12 13  1  0
 12 14  1  0
 12 18  1  0
 13 15  1  0
 13 16  1  0
 14 17  2  0
 14 19  1  0
 15 20  2  0
 15 21  1  0
 16 17  1  0
 20 22  1  0
 21 23  2  0
 22 24  2  0
 23 24  1  0
 25 27  1  0
 26 28  1  0
  8 29  1  0
  9 30  1  0
 10 31  1  0
 11 32  1  0
 17 33  1  0
 18 34  1  0
 18 35  1  0
 18 36  1  0
 19 37  1  0
 19 38  1  0
 19 39  1  0
 20 40  1  0
 21 41  1  0
 22 42  1  0
 23 43  1  0
 24 44  1  0
 25 45  1  0
 26 46  1  0
M  END
>  <DATABASE_ID>  (1) 
DB01495

>  <DATABASE_NAME>  (1) 
drugbank

>  <DRUGBANK_ID>  (1) 
DB01495

>  <DRUG_GROUPS>  (1) 
approved; illicit

>  <EXACT_MASS>  (1) 
515.934687938

>  <FORMULA>  (1) 
C15H18Cl6N2O5

>  <GENERIC_NAME>  (1) 
Dichloralphenazone

>  <INCHI_IDENTIFIER>  (1) 
InChI=1S/C11H12N2O.2C2H3Cl3O2/c1-9-8-11(14)13(12(9)2)10-6-4-3-5-7-10;2*3-2(4,5)1(6)7/h3-8H,1-2H3;2*1,6-7H

>  <INCHI_KEY>  (1) 
ATKXDQOHNICLQW-UHFFFAOYSA-N

>  <JCHEM_ACCEPTOR_COUNT>  (1) 
2

>  <JCHEM_AVERAGE_POLARIZABILITY>  (1) 
20.406412298129755

>  <JCHEM_BIOAVAILABILITY>  (1) 
1

>  <JCHEM_DONOR_COUNT>  (1) 
0

>  <JCHEM_FORMAL_CHARGE>  (1) 
0

>  <JCHEM_GHOSE_FILTER>  (1) 
0

>  <JCHEM_IUPAC>  (1) 
1,5-dimethyl-2-phenyl-2,3-dihydro-1H-pyrazol-3-one; bis(2,2,2-trichloroethane-1,1-diol)

>  <JCHEM_LOGP>  (1) 
1.2189718436666666

>  <JCHEM_MDDR_LIKE_RULE>  (1) 
0

>  <JCHEM_NUMBER_OF_RINGS>  (1) 
2

>  <JCHEM_PHYSIOLOGICAL_CHARGE>  (1) 
0

>  <JCHEM_PKA_STRONGEST_BASIC>  (1) 
0.3706652076238215

>  <JCHEM_POLAR_SURFACE_AREA>  (1) 
23.550000000000004

>  <JCHEM_REFRACTIVITY>  (1) 
56.41680000000001

>  <JCHEM_ROTATABLE_BOND_COUNT>  (1) 
3

>  <JCHEM_RULE_OF_FIVE>  (1) 
0

>  <JCHEM_TRADITIONAL_IUPAC>  (1) 
antipyrine; bis(chloral hydrate)

>  <JCHEM_VEBER_RULE>  (1) 
1

>  <MOLECULAR_WEIGHT>  (1) 
519.032

>  <PRODUCTS>  (1) 
Isometheptene Mucate, Dichloralphenazone, and Acetaminophen; Isometheptene Mucate/Dichloralphenazone/Acetaminophen; Isometheptene-Dichloral-APAP Oral; Nodolor

>  <SMILES>  (1) 
OC(O)C(Cl)(Cl)Cl.OC(O)C(Cl)(Cl)Cl.CN1N(C(=O)C=C1C)C1=CC=CC=C1

$$$$
