1431
     RDKit          2D

 54 57  0  0  1  0  0  0  0  0999 V2000
    5.9104    1.6065    0.0000 O   0  0  0  0  0  0  0  0  0  0  0  0
    5.3833    0.5700    0.0000 C   0  0  0  0  0  0  0  0  0  0  0  0
    5.3833   -0.2550    0.0000 C   0  0  0  0  0  0  0  0  0  0  0  0
    4.6689   -0.6675    0.0000 C   0  0  0  0  0  0  0  0  0  0  0  0
    3.9544   -0.2550    0.0000 C   0  0  0  0  0  0  0  0  0  0  0  0
    6.1640    0.8214    0.0000 C   0  0  0  0  0  0  0  0  0  0  0  0
    4.6689    0.9825    0.0000 C   0  0  0  0  0  0  0  0  0  0  0  0
    6.1640   -0.5064    0.0000 C   0  0  0  0  0  0  0  0  0  0  0  0
    3.9544    0.5700    0.0000 C   0  0  0  0  0  0  0  0  0  0  0  0
    6.6455    0.1575    0.0000 C   0  0  0  0  0  0  0  0  0  0  0  0
    3.2036   -0.6731    0.0000 C   0  0  0  0  0  0  0  0  0  0  0  0
    4.6821   -1.5268    0.0000 C   0  0  0  0  0  0  0  0  0  0  0  0
    5.3833    1.3950    0.0000 C   0  0  0  0  0  0  0  0  0  0  0  0
    3.9412   -1.9622    0.0000 C   0  0  0  0  0  0  0  0  0  0  0  0
    3.1970   -1.5325    0.0000 C   0  0  0  0  0  0  0  0  0  0  0  0
    6.8323    1.3052    0.0000 C   0  0  0  0  0  0  0  0  0  0  0  0
    2.4389   -0.2078    0.0000 C   0  0  0  0  0  0  0  0  0  0  0  0
    1.6570   -0.6433    0.0000 C   0  0  0  0  0  0  0  0  0  0  0  0
    2.4252   -1.9861    0.0000 C   0  0  0  0  0  0  0  0  0  0  0  0
    1.6500   -1.5385    0.0000 C   0  0  0  0  0  0  0  0  0  0  0  0
    7.5854    0.9683    0.0000 C   0  0  0  0  0  0  0  0  0  0  0  0
    8.2537    1.4521    0.0000 C   0  0  0  0  0  0  0  0  0  0  0  0
    0.0000    0.0000    0.0000 H   0  0  0  0  0  0  0  0  0  0  0  0
    0.0000    0.0000    0.0000 H   0  0  0  0  0  0  0  0  0  0  0  0
    0.0000    0.0000    0.0000 H   0  0  0  0  0  0  0  0  0  0  0  0
    0.0000    0.0000    0.0000 H   0  0  0  0  0  0  0  0  0  0  0  0
    0.0000    0.0000    0.0000 H   0  0  0  0  0  0  0  0  0  0  0  0
    0.0000    0.0000    0.0000 H   0  0  0  0  0  0  0  0  0  0  0  0
    0.0000    0.0000    0.0000 H   0  0  0  0  0  0  0  0  0  0  0  0
    0.0000    0.0000    0.0000 H   0  0  0  0  0  0  0  0  0  0  0  0
    0.0000    0.0000    0.0000 H   0  0  0  0  0  0  0  0  0  0  0  0
    0.0000    0.0000    0.0000 H   0  0  0  0  0  0  0  0  0  0  0  0
    0.0000    0.0000    0.0000 H   0  0  0  0  0  0  0  0  0  0  0  0
    0.0000    0.0000    0.0000 H   0  0  0  0  0  0  0  0  0  0  0  0
    0.0000    0.0000    0.0000 H   0  0  0  0  0  0  0  0  0  0  0  0
    0.0000    0.0000    0.0000 H   0  0  0  0  0  0  0  0  0  0  0  0
    0.0000    0.0000    0.0000 H   0  0  0  0  0  0  0  0  0  0  0  0
    0.0000    0.0000    0.0000 H   0  0  0  0  0  0  0  0  0  0  0  0
    0.0000    0.0000    0.0000 H   0  0  0  0  0  0  0  0  0  0  0  0
    0.0000    0.0000    0.0000 H   0  0  0  0  0  0  0  0  0  0  0  0
    0.0000    0.0000    0.0000 H   0  0  0  0  0  0  0  0  0  0  0  0
    0.0000    0.0000    0.0000 H   0  0  0  0  0  0  0  0  0  0  0  0
    0.0000    0.0000    0.0000 H   0  0  0  0  0  0  0  0  0  0  0  0
    0.0000    0.0000    0.0000 H   0  0  0  0  0  0  0  0  0  0  0  0
    0.0000    0.0000    0.0000 H   0  0  0  0  0  0  0  0  0  0  0  0
    0.0000    0.0000    0.0000 H   0  0  0  0  0  0  0  0  0  0  0  0
    0.0000    0.0000    0.0000 H   0  0  0  0  0  0  0  0  0  0  0  0
    0.0000    0.0000    0.0000 H   0  0  0  0  0  0  0  0  0  0  0  0
    0.0000    0.0000    0.0000 H   0  0  0  0  0  0  0  0  0  0  0  0
    0.0000    0.0000    0.0000 H   0  0  0  0  0  0  0  0  0  0  0  0
    0.0000    0.0000    0.0000 H   0  0  0  0  0  0  0  0  0  0  0  0
    0.0000    0.0000    0.0000 H   0  0  0  0  0  0  0  0  0  0  0  0
    0.0000    0.0000    0.0000 H   0  0  0  0  0  0  0  0  0  0  0  0
    0.0000    0.0000    0.0000 H   0  0  0  0  0  0  0  0  0  0  0  0
  6  1  1  1
  2  3  1  0
  2  6  1  0
  2  7  1  0
  2 13  1  1
  3  4  1  0
  3  8  1  0
  4  5  1  0
  4 12  1  0
  5  9  1  0
  5 11  1  0
  6 10  1  0
  6 16  1  0
  7  9  1  0
  8 10  1  0
 11 15  1  0
 11 17  1  0
 12 14  1  0
 14 15  1  0
 15 19  2  0
 16 21  1  0
 17 18  1  0
 18 20  1  0
 19 20  1  0
 21 22  2  3
  1 23  1  0
  3 24  1  6
  4 25  1  1
  5 26  1  6
  7 27  1  0
  7 28  1  0
  8 29  1  0
  8 30  1  0
  9 31  1  0
  9 32  1  0
 10 33  1  0
 10 34  1  0
 11 35  1  1
 12 36  1  0
 12 37  1  0
 13 38  1  0
 13 39  1  0
 13 40  1  0
 14 41  1  0
 14 42  1  0
 16 43  1  0
 16 44  1  0
 17 45  1  0
 17 46  1  0
 18 47  1  0
 18 48  1  0
 19 49  1  0
 20 50  1  0
 20 51  1  0
 21 52  1  0
 22 53  1  0
 22 54  1  0
M  END
>  <ALOGPS_LOGP>  (1) 
5.14

>  <ALOGPS_LOGS>  (1) 
-5.73

>  <ALOGPS_SOLUBILITY>  (1) 
5.58e-04 g/l

>  <DATABASE_ID>  (1) 
DB01431

>  <DATABASE_NAME>  (1) 
drugbank

>  <DRUGBANK_ID>  (1) 
DB01431

>  <DRUG_GROUPS>  (1) 
approved

>  <EXACT_MASS>  (1) 
300.245315646

>  <FORMULA>  (1) 
C21H32O

>  <GENERIC_NAME>  (1) 
Allylestrenol

>  <INCHI_IDENTIFIER>  (1) 
InChI=1S/C21H32O/c1-3-12-21(22)14-11-19-18-9-8-15-6-4-5-7-16(15)17(18)10-13-20(19,21)2/h3,6,16-19,22H,1,4-5,7-14H2,2H3/t16-,17+,18+,19-,20-,21-/m0/s1

>  <INCHI_KEY>  (1) 
ATXHVCQZZJYMCF-XUDSTZEESA-N

>  <INTERNATIONAL_BRANDS>  (1) 
Gestanin; Gestanol; Gestanon; Gestin; Gestrenol; Maintaine; Orageston; Profar; Turinal

>  <JCHEM_ACCEPTOR_COUNT>  (1) 
1

>  <JCHEM_AVERAGE_POLARIZABILITY>  (1) 
37.17381391662096

>  <JCHEM_BIOAVAILABILITY>  (1) 
1

>  <JCHEM_DONOR_COUNT>  (1) 
1

>  <JCHEM_FORMAL_CHARGE>  (1) 
0

>  <JCHEM_GHOSE_FILTER>  (1) 
1

>  <JCHEM_IUPAC>  (1) 
(1S,2R,10R,11S,14R,15S)-15-methyl-14-(prop-2-en-1-yl)tetracyclo[8.7.0.0²,⁷.0¹¹,¹⁵]heptadec-6-en-14-ol

>  <JCHEM_LOGP>  (1) 
4.828528498666667

>  <JCHEM_MDDR_LIKE_RULE>  (1) 
0

>  <JCHEM_NUMBER_OF_RINGS>  (1) 
4

>  <JCHEM_PHYSIOLOGICAL_CHARGE>  (1) 
0

>  <JCHEM_PKA_STRONGEST_BASIC>  (1) 
-0.17303499701586655

>  <JCHEM_POLAR_SURFACE_AREA>  (1) 
20.23

>  <JCHEM_REFRACTIVITY>  (1) 
93.1439

>  <JCHEM_ROTATABLE_BOND_COUNT>  (1) 
2

>  <JCHEM_RULE_OF_FIVE>  (1) 
1

>  <JCHEM_TRADITIONAL_IUPAC>  (1) 
gestanin

>  <JCHEM_VEBER_RULE>  (1) 
1

>  <MOLECULAR_WEIGHT>  (1) 
300.4782

>  <SMILES>  (1) 
[H][C@@]12CC[C@@](O)(CC=C)[C@@]1(C)CC[C@]1([H])[C@@]3([H])CCCC=C3CC[C@@]21[H]

>  <SYNONYMS>  (1) 
17α-allylestr-4-en-17β-ol; 3-deketo-17α-allyl-19-nortestosterone; Allyl estrenol; Allyloestrenol

$$$$
