
     RDKit          2D

113119  0  0  1  0  0  0  0  0999 V2000
    0.8458   -1.1897    0.0000 C   0  0  0  0  0  0  0  0  0  0  0  0
    2.5189   -0.7993    0.0000 C   0  0  0  0  0  0  0  0  0  0  0  0
    3.1510    0.3068    0.0000 C   0  0  0  0  0  0  0  0  0  0  0  0
    1.2455    1.2363    0.0000 C   0  0  0  0  0  0  0  0  0  0  0  0
    0.2138    1.2363    0.0000 C   0  0  0  0  0  0  0  0  0  0  0  0
   -0.3625    0.6415    0.0000 C   0  0  0  0  0  0  0  0  0  0  0  0
   -1.0969    0.6415    0.0000 C   0  0  0  0  0  0  0  0  0  0  0  0
   -1.4686    0.0000    0.0000 C   0  0  0  0  0  0  0  0  0  0  0  0
   -1.0969   -0.6413    0.0000 C   0  0  0  0  0  0  0  0  0  0  0  0
   -1.4686    1.2735    0.0000 C   0  0  0  0  0  0  0  0  0  0  0  0
    3.1785   -1.2832    0.0000 C   0  0  0  0  0  0  0  0  0  0  0  0
    2.5138   -1.5603    0.0000 O   0  0  0  0  0  0  0  0  0  0  0  0
    3.1440   -1.9400    0.0000 C   0  0  0  0  0  0  0  0  0  0  0  0
    3.8793   -1.5360    0.0000 C   0  0  0  0  0  0  0  0  0  0  0  0
    3.1440   -2.6511    0.0000 O   0  0  0  0  0  0  0  0  0  0  0  0
    1.4552    1.9708    0.0000 O   0  0  0  0  0  0  0  0  0  0  0  0
    0.8008   -2.0693    0.0000 O   0  0  0  0  0  0  0  0  0  0  0  0
   -0.6281   -3.7193    0.0000 C   0  0  0  0  0  0  0  0  0  0  0  0
   -0.6281   -4.5443    0.0000 C   0  0  0  0  0  0  0  0  0  0  0  0
    0.0863   -4.9568    0.0000 C   0  0  0  0  0  0  0  0  0  0  0  0
    0.8008   -4.5443    0.0000 C   0  0  0  0  0  0  0  0  0  0  0  0
    0.8008   -3.7193    0.0000 C   0  0  0  0  0  0  0  0  0  0  0  0
    0.0863   -3.3068    0.0000 C   0  0  0  0  0  0  0  0  0  0  0  0
    0.0863   -2.4818    0.0000 C   0  0  0  0  0  0  0  0  0  0  0  0
   -0.6281   -2.0693    0.0000 O   0  0  0  0  0  0  0  0  0  0  0  0
   -0.1850    2.1000    0.0000 O   0  0  0  0  0  0  0  0  0  0  0  0
   -0.8995    3.3375    0.0000 O   0  0  0  0  0  0  0  0  0  0  0  0
   -0.1850    2.9250    0.0000 C   0  0  0  0  0  0  0  0  0  0  0  0
    0.5295    3.3375    0.0000 C   0  0  0  0  0  0  0  0  0  0  0  0
    1.8776   -0.4368    0.0000 C   0  0  0  0  0  0  0  0  0  0  0  0
    1.8776    0.3068    0.0000 C   0  0  0  0  0  0  0  0  0  0  0  0
    1.8776    1.1318    0.0000 C   0  0  0  0  0  0  0  0  0  0  0  0
   -0.3625   -0.6413    0.0000 C   0  0  0  0  0  0  0  0  0  0  0  0
   -0.3625   -1.4663    0.0000 O   0  0  0  0  0  0  0  0  0  0  0  0
    0.7145    0.4125    0.0000 C   0  0  0  0  0  0  0  0  0  0  0  0
    0.7145   -0.4125    0.0000 C   0  0  0  0  0  0  0  0  0  0  0  0
    2.5189    0.6693    0.0000 C   0  0  0  0  0  0  0  0  0  0  0  0
    2.5189    1.4943    0.0000 O   0  0  0  0  0  0  0  0  0  0  0  0
    3.1510   -0.4368    0.0000 C   0  0  0  0  0  0  0  0  0  0  0  0
    3.8655   -0.8493    0.0000 O   0  0  0  0  0  0  0  0  0  0  0  0
    0.0000    0.0000    0.0000 C   0  0  0  0  0  0  0  0  0  0  0  0
   -2.1161   -0.3725    0.0000 O   0  0  0  0  0  0  0  0  0  0  0  0
   -5.7049    0.0235    0.0000 C   0  0  0  0  0  0  0  0  0  0  0  0
   -6.4194   -0.3890    0.0000 C   0  0  0  0  0  0  0  0  0  0  0  0
   -6.4194   -1.2140    0.0000 C   0  0  0  0  0  0  0  0  0  0  0  0
   -5.7049   -1.6265    0.0000 C   0  0  0  0  0  0  0  0  0  0  0  0
   -4.9740   -0.3890    0.0000 C   0  0  0  0  0  0  0  0  0  0  0  0
   -4.9740   -1.2140    0.0000 C   0  0  0  0  0  0  0  0  0  0  0  0
   -3.5450   -0.3725    0.0000 C   0  0  0  0  0  0  0  0  0  0  0  0
   -4.2595    0.0235    0.0000 C   0  0  0  0  0  0  0  0  0  0  0  0
   -2.8306    0.0400    0.0000 C   0  0  0  0  0  0  0  0  0  0  0  0
   -2.8306    0.8650    0.0000 O   0  0  0  0  0  0  0  0  0  0  0  0
   -3.5450   -1.1975    0.0000 O   0  0  0  0  0  0  0  0  0  0  0  0
   -4.2595    0.8485    0.0000 N   0  0  0  0  0  0  0  0  0  0  0  0
   -5.6884    2.4985    0.0000 C   0  0  0  0  0  0  0  0  0  0  0  0
   -5.6884    3.3235    0.0000 C   0  0  0  0  0  0  0  0  0  0  0  0
   -4.9740    3.7360    0.0000 C   0  0  0  0  0  0  0  0  0  0  0  0
   -4.2595    3.3235    0.0000 C   0  0  0  0  0  0  0  0  0  0  0  0
   -4.2595    2.4985    0.0000 C   0  0  0  0  0  0  0  0  0  0  0  0
   -4.9740    2.0860    0.0000 C   0  0  0  0  0  0  0  0  0  0  0  0
   -4.9740    1.2610    0.0000 C   0  0  0  0  0  0  0  0  0  0  0  0
   -5.6884    0.8485    0.0000 O   0  0  0  0  0  0  0  0  0  0  0  0
    0.0000    0.0000    0.0000 H   0  0  0  0  0  0  0  0  0  0  0  0
    0.0000    0.0000    0.0000 H   0  0  0  0  0  0  0  0  0  0  0  0
    0.0000    0.0000    0.0000 H   0  0  0  0  0  0  0  0  0  0  0  0
    0.0000    0.0000    0.0000 H   0  0  0  0  0  0  0  0  0  0  0  0
    0.0000    0.0000    0.0000 H   0  0  0  0  0  0  0  0  0  0  0  0
    0.0000    0.0000    0.0000 H   0  0  0  0  0  0  0  0  0  0  0  0
    0.0000    0.0000    0.0000 H   0  0  0  0  0  0  0  0  0  0  0  0
    0.0000    0.0000    0.0000 H   0  0  0  0  0  0  0  0  0  0  0  0
    0.0000    0.0000    0.0000 H   0  0  0  0  0  0  0  0  0  0  0  0
    0.0000    0.0000    0.0000 H   0  0  0  0  0  0  0  0  0  0  0  0
    0.0000    0.0000    0.0000 H   0  0  0  0  0  0  0  0  0  0  0  0
    0.0000    0.0000    0.0000 H   0  0  0  0  0  0  0  0  0  0  0  0
    0.0000    0.0000    0.0000 H   0  0  0  0  0  0  0  0  0  0  0  0
    0.0000    0.0000    0.0000 H   0  0  0  0  0  0  0  0  0  0  0  0
    0.0000    0.0000    0.0000 H   0  0  0  0  0  0  0  0  0  0  0  0
    0.0000    0.0000    0.0000 H   0  0  0  0  0  0  0  0  0  0  0  0
    0.0000    0.0000    0.0000 H   0  0  0  0  0  0  0  0  0  0  0  0
    0.0000    0.0000    0.0000 H   0  0  0  0  0  0  0  0  0  0  0  0
    0.0000    0.0000    0.0000 H   0  0  0  0  0  0  0  0  0  0  0  0
    0.0000    0.0000    0.0000 H   0  0  0  0  0  0  0  0  0  0  0  0
    0.0000    0.0000    0.0000 H   0  0  0  0  0  0  0  0  0  0  0  0
    0.0000    0.0000    0.0000 H   0  0  0  0  0  0  0  0  0  0  0  0
    0.0000    0.0000    0.0000 H   0  0  0  0  0  0  0  0  0  0  0  0
    0.0000    0.0000    0.0000 H   0  0  0  0  0  0  0  0  0  0  0  0
    0.0000    0.0000    0.0000 H   0  0  0  0  0  0  0  0  0  0  0  0
    0.0000    0.0000    0.0000 H   0  0  0  0  0  0  0  0  0  0  0  0
    0.0000    0.0000    0.0000 H   0  0  0  0  0  0  0  0  0  0  0  0
    0.0000    0.0000    0.0000 H   0  0  0  0  0  0  0  0  0  0  0  0
    0.0000    0.0000    0.0000 H   0  0  0  0  0  0  0  0  0  0  0  0
    0.0000    0.0000    0.0000 H   0  0  0  0  0  0  0  0  0  0  0  0
    0.0000    0.0000    0.0000 H   0  0  0  0  0  0  0  0  0  0  0  0
    0.0000    0.0000    0.0000 H   0  0  0  0  0  0  0  0  0  0  0  0
    0.0000    0.0000    0.0000 H   0  0  0  0  0  0  0  0  0  0  0  0
    0.0000    0.0000    0.0000 H   0  0  0  0  0  0  0  0  0  0  0  0
    0.0000    0.0000    0.0000 H   0  0  0  0  0  0  0  0  0  0  0  0
    0.0000    0.0000    0.0000 H   0  0  0  0  0  0  0  0  0  0  0  0
    0.0000    0.0000    0.0000 H   0  0  0  0  0  0  0  0  0  0  0  0
    0.0000    0.0000    0.0000 H   0  0  0  0  0  0  0  0  0  0  0  0
    0.0000    0.0000    0.0000 H   0  0  0  0  0  0  0  0  0  0  0  0
    0.0000    0.0000    0.0000 H   0  0  0  0  0  0  0  0  0  0  0  0
    0.0000    0.0000    0.0000 H   0  0  0  0  0  0  0  0  0  0  0  0
    0.0000    0.0000    0.0000 H   0  0  0  0  0  0  0  0  0  0  0  0
    0.0000    0.0000    0.0000 H   0  0  0  0  0  0  0  0  0  0  0  0
    0.0000    0.0000    0.0000 H   0  0  0  0  0  0  0  0  0  0  0  0
    0.0000    0.0000    0.0000 H   0  0  0  0  0  0  0  0  0  0  0  0
    0.0000    0.0000    0.0000 H   0  0  0  0  0  0  0  0  0  0  0  0
    0.0000    0.0000    0.0000 H   0  0  0  0  0  0  0  0  0  0  0  0
    0.0000    0.0000    0.0000 H   0  0  0  0  0  0  0  0  0  0  0  0
    0.0000    0.0000    0.0000 H   0  0  0  0  0  0  0  0  0  0  0  0
    0.0000    0.0000    0.0000 H   0  0  0  0  0  0  0  0  0  0  0  0
    0.0000    0.0000    0.0000 H   0  0  0  0  0  0  0  0  0  0  0  0
  6  7  2  0
  8  7  1  0
  7 10  1  0
 41  6  1  0
  5  6  1  0
  9  8  1  0
 33 41  1  0
 33  9  1  0
  1 33  1  0
 30  1  1  0
 39  3  1  0
 37  3  1  0
  2 39  1  0
 31 37  1  0
 30  2  1  0
  2 11  1  0
 30 31  1  0
  4 31  1  0
  4  5  1  0
  2 12  1  6
 13 12  1  0
 14 13  1  0
 15 13  2  0
  1 17  1  1
 16  4  2  0
  5 26  1  6
  8 42  1  1
 24 17  1  0
 23 18  2  0
 18 19  1  0
 19 20  2  0
 20 21  1  0
 21 22  2  0
 23 22  1  0
 23 24  1  0
 24 25  2  0
 26 28  1  0
 28 27  2  0
 28 29  1  0
 31 32  1  1
 33 34  1  1
 41 35  1  0
 41 36  1  0
 37 38  1  1
 39 40  1  0
 11 40  1  0
 51 42  1  0
 43 44  2  0
 43 47  1  0
 44 45  1  0
 45 46  2  0
 46 48  1  0
 50 47  1  1
 48 47  2  0
 50 49  1  0
 49 51  1  6
 49 53  1  0
 50 54  1  0
 51 52  2  0
 61 54  1  0
 60 55  2  0
 55 56  1  0
 56 57  2  0
 57 58  1  0
 58 59  2  0
 60 59  1  0
 60 61  1  0
 61 62  2  0
  1 63  1  0
  3 64  1  0
  3 65  1  0
  5 66  1  0
  8 67  1  0
  9 68  1  0
  9 69  1  0
 10 70  1  0
 10 71  1  0
 10 72  1  0
 11 73  1  0
 11 74  1  0
 14 75  1  0
 14 76  1  0
 14 77  1  0
 18 78  1  0
 19 79  1  0
 20 80  1  0
 21 81  1  0
 22 82  1  0
 29 83  1  0
 29 84  1  0
 29 85  1  0
 30 86  1  6
 32 87  1  0
 32 88  1  0
 32 89  1  0
 34 90  1  0
 35 91  1  0
 35 92  1  0
 35 93  1  0
 36 94  1  0
 36 95  1  0
 36 96  1  0
 37 97  1  0
 38 98  1  0
 39 99  1  6
 43100  1  0
 44101  1  0
 45102  1  0
 46103  1  0
 48104  1  0
 49105  1  0
 50106  1  0
 53107  1  0
 54108  1  0
 55109  1  0
 56110  1  0
 57111  1  0
 58112  1  0
 59113  1  0
M  END
>  <ALOGPS_LOGP>  (1) 
3.20

>  <ALOGPS_LOGS>  (1) 
-5.19

>  <ALOGPS_SOLUBILITY>  (1) 
5.56e-03 g/l

>  <DATABASE_ID>  (1) 
DB01229

>  <DATABASE_NAME>  (1) 
drugbank

>  <DRUGBANK_ID>  (1) 
DB01229

>  <DRUG_GROUPS>  (1) 
approved; vet_approved

>  <EXACT_MASS>  (1) 
853.330955345

>  <FORMULA>  (1) 
C47H51NO14

>  <GENERIC_NAME>  (1) 
Paclitaxel

>  <INCHI_IDENTIFIER>  (1) 
InChI=1S/C47H51NO14/c1-25-31(60-43(56)36(52)35(28-16-10-7-11-17-28)48-41(54)29-18-12-8-13-19-29)23-47(57)40(61-42(55)30-20-14-9-15-21-30)38-45(6,32(51)22-33-46(38,24-58-33)62-27(3)50)39(53)37(59-26(2)49)34(25)44(47,4)5/h7-21,31-33,35-38,40,51-52,57H,22-24H2,1-6H3,(H,48,54)/t31-,32-,33+,35-,36+,37+,38-,40-,45+,46-,47+/m0/s1

>  <INCHI_KEY>  (1) 
RCINICONZNJXQF-MZXODVADSA-N

>  <INTERNATIONAL_BRANDS>  (1) 
Onxol; Paxceed; Taxol

>  <JCHEM_ACCEPTOR_COUNT>  (1) 
10

>  <JCHEM_AVERAGE_POLARIZABILITY>  (1) 
87.17115364926595

>  <JCHEM_BIOAVAILABILITY>  (1) 
0

>  <JCHEM_DONOR_COUNT>  (1) 
4

>  <JCHEM_FORMAL_CHARGE>  (1) 
0

>  <JCHEM_GHOSE_FILTER>  (1) 
0

>  <JCHEM_IUPAC>  (1) 
(1S,2S,3R,4S,7R,9S,10S,12R,15S)-4,12-bis(acetyloxy)-1,9-dihydroxy-15-{[(2R,3S)-2-hydroxy-3-phenyl-3-(phenylformamido)propanoyl]oxy}-10,14,17,17-tetramethyl-11-oxo-6-oxatetracyclo[11.3.1.0³,¹⁰.0⁴,⁷]heptadec-13-en-2-yl benzoate

>  <JCHEM_LOGP>  (1) 
3.5388400199999985

>  <JCHEM_MDDR_LIKE_RULE>  (1) 
1

>  <JCHEM_NUMBER_OF_RINGS>  (1) 
7

>  <JCHEM_PHYSIOLOGICAL_CHARGE>  (1) 
0

>  <JCHEM_PKA>  (1) 
11.988387427532563

>  <JCHEM_PKA_STRONGEST_ACIDIC>  (1) 
10.36394893058194

>  <JCHEM_PKA_STRONGEST_BASIC>  (1) 
-1.0379486079382971

>  <JCHEM_POLAR_SURFACE_AREA>  (1) 
221.29

>  <JCHEM_REFRACTIVITY>  (1) 
218.29449999999994

>  <JCHEM_ROTATABLE_BOND_COUNT>  (1) 
14

>  <JCHEM_RULE_OF_FIVE>  (1) 
0

>  <JCHEM_TRADITIONAL_IUPAC>  (1) 
paclitaxel

>  <JCHEM_VEBER_RULE>  (1) 
0

>  <MOLECULAR_WEIGHT>  (1) 
853.9061

>  <PRODUCTS>  (1) 
Abraxane; Abraxane for Injectable Suspension; Aj-paclitaxel; Apo-paclitaxel Injectable; Paclitaxel; Paclitaxel Injection; Paclitaxel Injection USP; Paclitaxel Injection, USP; Paclitaxel Paclitaxel; Paclitaxel for Injection; Paclitaxel for Injection USP; Paxene; Taxol; Teva-paclitaxel for Injection

>  <SECONDARY_ACCESSION_NUMBERS>  (1) 
APRD00259; DB05261; DB05927; DB05526

>  <SMILES>  (1) 
[H][C@]12[C@H](OC(=O)C3=CC=CC=C3)[C@]3(O)C[C@H](OC(=O)[C@H](O)[C@@H](NC(=O)C4=CC=CC=C4)C4=CC=CC=C4)C(C)=C([C@@H](OC(C)=O)C(=O)[C@]1(C)[C@@H](O)C[C@H]1OC[C@@]21OC(C)=O)C3(C)C

>  <SYNONYMS>  (1) 
Taxol A

$$$$
