1436
     RDKit          2D

 73 75  0  0  1  0  0  0  0  0999 V2000
    1.6500   -3.9985    0.0000 O   0  0  0  0  0  0  0  0  0  0  0  0
    4.5080   -3.9985    0.0000 O   0  0  0  0  0  0  0  0  0  0  0  0
    4.5080    0.9517    0.0000 C   0  0  0  0  0  0  0  0  0  0  0  0
    5.2886    1.2030    0.0000 C   0  0  0  0  0  0  0  0  0  0  0  0
    4.5080    0.1266    0.0000 C   0  0  0  0  0  0  0  0  0  0  0  0
    5.7701    0.5391    0.0000 C   0  0  0  0  0  0  0  0  0  0  0  0
    5.2886   -0.1247    0.0000 C   0  0  0  0  0  0  0  0  0  0  0  0
    3.7935    1.3642    0.0000 C   0  0  0  0  0  0  0  0  0  0  0  0
    5.5449    1.9872    0.0000 C   0  0  0  0  0  0  0  0  0  0  0  0
    3.7935   -0.2859    0.0000 C   0  0  0  0  0  0  0  0  0  0  0  0
    4.5080    1.7767    0.0000 C   0  0  0  0  0  0  0  0  0  0  0  0
    3.0791    0.9517    0.0000 C   0  0  0  0  0  0  0  0  0  0  0  0
    3.0791    0.1266    0.0000 C   0  0  0  0  0  0  0  0  0  0  0  0
    6.3522    2.1574    0.0000 C   0  0  0  0  0  0  0  0  0  0  0  0
    4.9939    2.6013    0.0000 C   0  0  0  0  0  0  0  0  0  0  0  0
    3.7935   -1.1109    0.0000 C   0  0  0  0  0  0  0  0  0  0  0  0
    6.6086    2.9416    0.0000 C   0  0  0  0  0  0  0  0  0  0  0  0
    7.4158    3.1117    0.0000 C   0  0  0  0  0  0  0  0  0  0  0  0
    3.0791   -1.5234    0.0000 C   0  0  0  0  0  0  0  0  0  0  0  0
    7.6721    3.8959    0.0000 C   0  0  0  0  0  0  0  0  0  0  0  0
    3.0791   -2.3484    0.0000 C   0  0  0  0  0  0  0  0  0  0  0  0
    2.3645   -2.7609    0.0000 C   0  0  0  0  0  0  0  0  0  0  0  0
    3.7935   -2.7609    0.0000 C   0  0  0  0  0  0  0  0  0  0  0  0
    7.1211    4.5100    0.0000 C   0  0  0  0  0  0  0  0  0  0  0  0
    8.4794    4.0660    0.0000 C   0  0  0  0  0  0  0  0  0  0  0  0
    2.3645   -3.5859    0.0000 C   0  0  0  0  0  0  0  0  0  0  0  0
    3.7935   -3.5859    0.0000 C   0  0  0  0  0  0  0  0  0  0  0  0
    3.0791   -3.9985    0.0000 C   0  0  0  0  0  0  0  0  0  0  0  0
    4.5080   -2.3484    0.0000 C   0  0  0  0  0  0  0  0  0  0  0  0
    0.0000    0.0000    0.0000 H   0  0  0  0  0  0  0  0  0  0  0  0
    0.0000    0.0000    0.0000 H   0  0  0  0  0  0  0  0  0  0  0  0
    0.0000    0.0000    0.0000 H   0  0  0  0  0  0  0  0  0  0  0  0
    0.0000    0.0000    0.0000 H   0  0  0  0  0  0  0  0  0  0  0  0
    0.0000    0.0000    0.0000 H   0  0  0  0  0  0  0  0  0  0  0  0
    0.0000    0.0000    0.0000 H   0  0  0  0  0  0  0  0  0  0  0  0
    0.0000    0.0000    0.0000 H   0  0  0  0  0  0  0  0  0  0  0  0
    0.0000    0.0000    0.0000 H   0  0  0  0  0  0  0  0  0  0  0  0
    0.0000    0.0000    0.0000 H   0  0  0  0  0  0  0  0  0  0  0  0
    0.0000    0.0000    0.0000 H   0  0  0  0  0  0  0  0  0  0  0  0
    0.0000    0.0000    0.0000 H   0  0  0  0  0  0  0  0  0  0  0  0
    0.0000    0.0000    0.0000 H   0  0  0  0  0  0  0  0  0  0  0  0
    0.0000    0.0000    0.0000 H   0  0  0  0  0  0  0  0  0  0  0  0
    0.0000    0.0000    0.0000 H   0  0  0  0  0  0  0  0  0  0  0  0
    0.0000    0.0000    0.0000 H   0  0  0  0  0  0  0  0  0  0  0  0
    0.0000    0.0000    0.0000 H   0  0  0  0  0  0  0  0  0  0  0  0
    0.0000    0.0000    0.0000 H   0  0  0  0  0  0  0  0  0  0  0  0
    0.0000    0.0000    0.0000 H   0  0  0  0  0  0  0  0  0  0  0  0
    0.0000    0.0000    0.0000 H   0  0  0  0  0  0  0  0  0  0  0  0
    0.0000    0.0000    0.0000 H   0  0  0  0  0  0  0  0  0  0  0  0
    0.0000    0.0000    0.0000 H   0  0  0  0  0  0  0  0  0  0  0  0
    0.0000    0.0000    0.0000 H   0  0  0  0  0  0  0  0  0  0  0  0
    0.0000    0.0000    0.0000 H   0  0  0  0  0  0  0  0  0  0  0  0
    0.0000    0.0000    0.0000 H   0  0  0  0  0  0  0  0  0  0  0  0
    0.0000    0.0000    0.0000 H   0  0  0  0  0  0  0  0  0  0  0  0
    0.0000    0.0000    0.0000 H   0  0  0  0  0  0  0  0  0  0  0  0
    0.0000    0.0000    0.0000 H   0  0  0  0  0  0  0  0  0  0  0  0
    0.0000    0.0000    0.0000 H   0  0  0  0  0  0  0  0  0  0  0  0
    0.0000    0.0000    0.0000 H   0  0  0  0  0  0  0  0  0  0  0  0
    0.0000    0.0000    0.0000 H   0  0  0  0  0  0  0  0  0  0  0  0
    0.0000    0.0000    0.0000 H   0  0  0  0  0  0  0  0  0  0  0  0
    0.0000    0.0000    0.0000 H   0  0  0  0  0  0  0  0  0  0  0  0
    0.0000    0.0000    0.0000 H   0  0  0  0  0  0  0  0  0  0  0  0
    0.0000    0.0000    0.0000 H   0  0  0  0  0  0  0  0  0  0  0  0
    0.0000    0.0000    0.0000 H   0  0  0  0  0  0  0  0  0  0  0  0
    0.0000    0.0000    0.0000 H   0  0  0  0  0  0  0  0  0  0  0  0
    0.0000    0.0000    0.0000 H   0  0  0  0  0  0  0  0  0  0  0  0
    0.0000    0.0000    0.0000 H   0  0  0  0  0  0  0  0  0  0  0  0
    0.0000    0.0000    0.0000 H   0  0  0  0  0  0  0  0  0  0  0  0
    0.0000    0.0000    0.0000 H   0  0  0  0  0  0  0  0  0  0  0  0
    0.0000    0.0000    0.0000 H   0  0  0  0  0  0  0  0  0  0  0  0
    0.0000    0.0000    0.0000 H   0  0  0  0  0  0  0  0  0  0  0  0
    0.0000    0.0000    0.0000 H   0  0  0  0  0  0  0  0  0  0  0  0
    0.0000    0.0000    0.0000 H   0  0  0  0  0  0  0  0  0  0  0  0
 26  1  1  6
 27  2  1  6
  3  4  1  0
  3  5  1  0
  3  8  1  0
  3 11  1  1
  4  6  1  0
  4  9  1  0
  5  7  1  0
  5 10  1  0
  6  7  1  0
  8 12  1  0
  9 14  1  1
  9 15  1  0
 10 13  1  0
 10 16  2  0
 12 13  1  0
 14 17  1  0
 16 19  1  0
 17 18  1  0
 18 20  1  0
 19 21  2  0
 20 24  1  0
 20 25  1  0
 21 22  1  0
 21 23  1  0
 22 26  1  0
 23 27  1  0
 23 29  2  3
 26 28  1  0
 27 28  1  0
  1 30  1  0
  2 31  1  0
  4 32  1  6
  5 33  1  6
  6 34  1  0
  6 35  1  0
  7 36  1  0
  7 37  1  0
  8 38  1  0
  8 39  1  0
  9 40  1  0
 11 41  1  0
 11 42  1  0
 11 43  1  0
 12 44  1  0
 12 45  1  0
 13 46  1  0
 13 47  1  0
 14 48  1  0
 14 49  1  0
 15 50  1  0
 15 51  1  0
 15 52  1  0
 16 53  1  0
 17 54  1  0
 17 55  1  0
 18 56  1  0
 18 57  1  0
 19 58  1  0
 20 59  1  0
 22 60  1  0
 22 61  1  0
 24 62  1  0
 24 63  1  0
 24 64  1  0
 25 65  1  0
 25 66  1  0
 25 67  1  0
 26 68  1  0
 27 69  1  0
 28 70  1  0
 28 71  1  0
 29 72  1  0
 29 73  1  0
M  END
>  <ALOGPS_LOGP>  (1) 
6.68

>  <ALOGPS_LOGS>  (1) 
-5.39

>  <ALOGPS_SOLUBILITY>  (1) 
1.63e-03 g/l

>  <DATABASE_ID>  (1) 
DB01436

>  <DATABASE_NAME>  (1) 
drugbank

>  <DRUGBANK_ID>  (1) 
DB01436

>  <DRUG_GROUPS>  (1) 
approved; nutraceutical

>  <EXACT_MASS>  (1) 
400.334130652

>  <FORMULA>  (1) 
C27H44O2

>  <GENERIC_NAME>  (1) 
Alfacalcidol

>  <INCHI_IDENTIFIER>  (1) 
InChI=1S/C27H44O2/c1-18(2)8-6-9-19(3)24-13-14-25-21(10-7-15-27(24,25)5)11-12-22-16-23(28)17-26(29)20(22)4/h11-12,18-19,23-26,28-29H,4,6-10,13-17H2,1-3,5H3/b21-11+,22-12-/t19-,23-,24-,25+,26+,27-/m1/s1

>  <INCHI_KEY>  (1) 
OFHCOWSQAMBJIW-AVJTYSNKSA-N

>  <INTERNATIONAL_BRANDS>  (1) 
Alsiodol; One Alpha

>  <JCHEM_ACCEPTOR_COUNT>  (1) 
2

>  <JCHEM_AVERAGE_POLARIZABILITY>  (1) 
50.55246071457845

>  <JCHEM_BIOAVAILABILITY>  (1) 
1

>  <JCHEM_DONOR_COUNT>  (1) 
2

>  <JCHEM_FORMAL_CHARGE>  (1) 
0

>  <JCHEM_GHOSE_FILTER>  (1) 
0

>  <JCHEM_IUPAC>  (1) 
(1R,3S,5Z)-5-{2-[(1R,3aS,4E,7aR)-7a-methyl-1-[(2R)-6-methylheptan-2-yl]-octahydro-1H-inden-4-ylidene]ethylidene}-4-methylidenecyclohexane-1,3-diol

>  <JCHEM_LOGP>  (1) 
5.821855681666667

>  <JCHEM_MDDR_LIKE_RULE>  (1) 
1

>  <JCHEM_NUMBER_OF_RINGS>  (1) 
3

>  <JCHEM_PHYSIOLOGICAL_CHARGE>  (1) 
0

>  <JCHEM_PKA>  (1) 
15.288747760735944

>  <JCHEM_PKA_STRONGEST_ACIDIC>  (1) 
14.392873609845417

>  <JCHEM_PKA_STRONGEST_BASIC>  (1) 
-2.7596614720148134

>  <JCHEM_POLAR_SURFACE_AREA>  (1) 
40.46

>  <JCHEM_REFRACTIVITY>  (1) 
124.69639999999995

>  <JCHEM_ROTATABLE_BOND_COUNT>  (1) 
6

>  <JCHEM_RULE_OF_FIVE>  (1) 
0

>  <JCHEM_TRADITIONAL_IUPAC>  (1) 
etÎ±

>  <JCHEM_VEBER_RULE>  (1) 
0

>  <MOLECULAR_WEIGHT>  (1) 
400.6371

>  <PRODUCTS>  (1) 
One Alpha Caps 0.25mcg; One Alpha Caps 1mcg; One-alpha; One-alpha Sol 0.2mcg/ml

>  <SMILES>  (1) 
CC(C)CCC[C@@H](C)[C@@]1([H])CC[C@@]2([H])\C(CCC[C@]12C)=C\C=C1\C[C@@H](O)C[C@H](O)C1=C

>  <SYNONYMS>  (1) 
1-hydroxycholecalciferol

$$$$
