1403
     RDKit          2D

 47 49  0  0  1  0  0  0  0  0999 V2000
   12.2932  -12.4596    0.0000 C   0  0  0  0  0  0  0  0  0  0  0  0
   12.2932  -13.2846    0.0000 C   0  0  0  0  0  0  0  0  0  0  0  0
   13.0357  -13.6971    0.0000 C   0  0  0  0  0  0  0  0  0  0  0  0
   13.0357  -12.0472    0.0000 C   0  0  0  0  0  0  0  0  0  0  0  0
   13.7369  -12.4596    0.0000 C   0  0  0  0  0  0  0  0  0  0  0  0
   13.7369  -13.2846    0.0000 C   0  0  0  0  0  0  0  0  0  0  0  0
   14.4381  -13.6971    0.0000 S   0  0  0  0  0  0  0  0  0  0  0  0
   14.4381  -12.0472    0.0000 N   0  0  0  0  0  0  0  0  0  0  0  0
   15.1806  -12.4596    0.0000 C   0  0  0  0  0  0  0  0  0  0  0  0
   15.1806  -13.2846    0.0000 C   0  0  0  0  0  0  0  0  0  0  0  0
   15.8406  -13.6971    0.0000 C   0  0  0  0  0  0  0  0  0  0  0  0
   16.5831  -13.2846    0.0000 C   0  0  0  0  0  0  0  0  0  0  0  0
   16.5831  -12.4596    0.0000 C   0  0  0  0  0  0  0  0  0  0  0  0
   15.8818  -12.0472    0.0000 C   0  0  0  0  0  0  0  0  0  0  0  0
   14.4381  -11.2221    0.0000 C   0  0  0  0  0  0  0  0  0  0  0  0
   15.1806  -10.8097    0.0000 C   0  0  0  0  0  0  0  0  0  0  0  0
   15.1806   -9.9847    0.0000 C   0  0  0  0  0  0  0  0  0  0  0  0
   15.8818  -11.2221    0.0000 C   0  0  0  0  0  0  0  0  0  0  0  0
   15.8818   -9.5722    0.0000 N   0  0  0  0  0  0  0  0  0  0  0  0
   15.8818   -8.7472    0.0000 C   0  0  0  0  0  0  0  0  0  0  0  0
   16.6243   -9.9847    0.0000 C   0  0  0  0  0  0  0  0  0  0  0  0
   17.3030  -12.0479    0.0000 O   0  0  0  0  0  0  0  0  0  0  0  0
   18.0098  -12.4598    0.0000 C   0  0  0  0  0  0  0  0  0  0  0  0
    0.0000    0.0000    0.0000 H   0  0  0  0  0  0  0  0  0  0  0  0
    0.0000    0.0000    0.0000 H   0  0  0  0  0  0  0  0  0  0  0  0
    0.0000    0.0000    0.0000 H   0  0  0  0  0  0  0  0  0  0  0  0
    0.0000    0.0000    0.0000 H   0  0  0  0  0  0  0  0  0  0  0  0
    0.0000    0.0000    0.0000 H   0  0  0  0  0  0  0  0  0  0  0  0
    0.0000    0.0000    0.0000 H   0  0  0  0  0  0  0  0  0  0  0  0
    0.0000    0.0000    0.0000 H   0  0  0  0  0  0  0  0  0  0  0  0
    0.0000    0.0000    0.0000 H   0  0  0  0  0  0  0  0  0  0  0  0
    0.0000    0.0000    0.0000 H   0  0  0  0  0  0  0  0  0  0  0  0
    0.0000    0.0000    0.0000 H   0  0  0  0  0  0  0  0  0  0  0  0
    0.0000    0.0000    0.0000 H   0  0  0  0  0  0  0  0  0  0  0  0
    0.0000    0.0000    0.0000 H   0  0  0  0  0  0  0  0  0  0  0  0
    0.0000    0.0000    0.0000 H   0  0  0  0  0  0  0  0  0  0  0  0
    0.0000    0.0000    0.0000 H   0  0  0  0  0  0  0  0  0  0  0  0
    0.0000    0.0000    0.0000 H   0  0  0  0  0  0  0  0  0  0  0  0
    0.0000    0.0000    0.0000 H   0  0  0  0  0  0  0  0  0  0  0  0
    0.0000    0.0000    0.0000 H   0  0  0  0  0  0  0  0  0  0  0  0
    0.0000    0.0000    0.0000 H   0  0  0  0  0  0  0  0  0  0  0  0
    0.0000    0.0000    0.0000 H   0  0  0  0  0  0  0  0  0  0  0  0
    0.0000    0.0000    0.0000 H   0  0  0  0  0  0  0  0  0  0  0  0
    0.0000    0.0000    0.0000 H   0  0  0  0  0  0  0  0  0  0  0  0
    0.0000    0.0000    0.0000 H   0  0  0  0  0  0  0  0  0  0  0  0
    0.0000    0.0000    0.0000 H   0  0  0  0  0  0  0  0  0  0  0  0
    0.0000    0.0000    0.0000 H   0  0  0  0  0  0  0  0  0  0  0  0
 14  9  1  0
  2  3  2  0
  5  6  2  0
  6  7  1  0
  8 15  1  0
  7 10  1  0
 16 15  1  1
  9  8  1  0
 16 17  1  0
  8  5  1  0
 16 18  1  0
  3  6  1  0
 17 19  1  0
  5  4  1  0
 19 20  1  0
  4  1  2  0
 19 21  1  0
  1  2  1  0
  9 10  2  0
 10 11  1  0
 11 12  2  0
 12 13  1  0
 13 14  2  0
 13 22  1  0
 22 23  1  0
  1 24  1  0
  2 25  1  0
  3 26  1  0
  4 27  1  0
 11 28  1  0
 12 29  1  0
 14 30  1  0
 15 31  1  0
 15 32  1  0
 16 33  1  0
 17 34  1  0
 17 35  1  0
 18 36  1  0
 18 37  1  0
 18 38  1  0
 20 39  1  0
 20 40  1  0
 20 41  1  0
 21 42  1  0
 21 43  1  0
 21 44  1  0
 23 45  1  0
 23 46  1  0
 23 47  1  0
M  END
>  <ALOGPS_LOGP>  (1) 
4.84

>  <ALOGPS_LOGS>  (1) 
-4.80

>  <ALOGPS_SOLUBILITY>  (1) 
5.25e-03 g/l

>  <DATABASE_ID>  (1) 
DB01403

>  <DATABASE_NAME>  (1) 
drugbank

>  <DRUGBANK_ID>  (1) 
DB01403

>  <DRUG_GROUPS>  (1) 
approved

>  <EXACT_MASS>  (1) 
328.16093409

>  <FORMULA>  (1) 
C19H24N2OS

>  <GENERIC_NAME>  (1) 
Methotrimeprazine

>  <INCHI_IDENTIFIER>  (1) 
InChI=1S/C19H24N2OS/c1-14(12-20(2)3)13-21-16-7-5-6-8-18(16)23-19-10-9-15(22-4)11-17(19)21/h5-11,14H,12-13H2,1-4H3/t14-/m1/s1

>  <INCHI_KEY>  (1) 
VRQVVMDWGGWHTJ-CQSZACIVSA-N

>  <INTERNATIONAL_BRANDS>  (1) 
Levoprome; Neurocil; Nosinan; Nozinan

>  <JCHEM_ACCEPTOR_COUNT>  (1) 
3

>  <JCHEM_AVERAGE_POLARIZABILITY>  (1) 
36.765685745522234

>  <JCHEM_BIOAVAILABILITY>  (1) 
1

>  <JCHEM_DONOR_COUNT>  (1) 
0

>  <JCHEM_FORMAL_CHARGE>  (1) 
0

>  <JCHEM_GHOSE_FILTER>  (1) 
1

>  <JCHEM_IUPAC>  (1) 
[(2R)-3-(2-methoxy-10H-phenothiazin-10-yl)-2-methylpropyl]dimethylamine

>  <JCHEM_LOGP>  (1) 
4.252607859666666

>  <JCHEM_MDDR_LIKE_RULE>  (1) 
0

>  <JCHEM_NUMBER_OF_RINGS>  (1) 
3

>  <JCHEM_PHYSIOLOGICAL_CHARGE>  (1) 
1

>  <JCHEM_PKA_STRONGEST_BASIC>  (1) 
9.421368308045276

>  <JCHEM_POLAR_SURFACE_AREA>  (1) 
15.71

>  <JCHEM_REFRACTIVITY>  (1) 
99.83109999999999

>  <JCHEM_ROTATABLE_BOND_COUNT>  (1) 
5

>  <JCHEM_RULE_OF_FIVE>  (1) 
1

>  <JCHEM_TRADITIONAL_IUPAC>  (1) 
methotrimeprazine

>  <JCHEM_VEBER_RULE>  (1) 
1

>  <MOLECULAR_WEIGHT>  (1) 
328.472

>  <PRODUCTS>  (1) 
Methoprazine; Methotrimeprazine-2; Methotrimeprazine-25; Methotrimeprazine-5; Methotrimeprazine-50; Nov Meprazine Tab 50mg; Novo Meprazine Tab 25mg; Novo Meprazine Tab 5mg; Nozinan 5mg Tab; Nozinan 5mg/ml; Nozinan Inj 25mg/ml; Nozinan Liq 40mg/ml; Nozinan Tab 25mg; Nozinan Tab 2mg; Nozinan Tab 50mg; PMS-methotrimeprazine; Riva-meprazine 25mg Tablets; Riva-meprazine 50mg Tablets; Riva-meprazine 5mg Tablets

>  <SMILES>  (1) 
COC1=CC2=C(SC3=C(C=CC=C3)N2C[C@H](C)CN(C)C)C=C1

>  <SYNONYMS>  (1) 
2-Methoxytrimeprazine; Levomepromazine

$$$$
