1273
     RDKit          2D

 29 32  0  0  1  0  0  0  0  0999 V2000
    7.5417    0.0362    0.0000 N   0  0  0  0  0  0  0  0  0  0  0  0
    2.7584   -1.8273    0.0000 N   0  0  0  0  0  0  0  0  0  0  0  0
    1.9389   -0.4079    0.0000 N   0  0  0  0  0  0  0  0  0  0  0  0
    5.6545    0.3520    0.0000 C   0  0  0  0  0  0  0  0  0  0  0  0
    5.8513    1.0865    0.0000 C   0  0  0  0  0  0  0  0  0  0  0  0
    5.2911    1.8337    0.0000 C   0  0  0  0  0  0  0  0  0  0  0  0
    4.3374   -0.4085    0.0000 C   0  0  0  0  0  0  0  0  0  0  0  0
    3.9572    0.2501    0.0000 C   0  0  0  0  0  0  0  0  0  0  0  0
    6.9508   -0.4425    0.0000 C   0  0  0  0  0  0  0  0  0  0  0  0
    7.2692    0.7461    0.0000 C   0  0  0  0  0  0  0  0  0  0  0  0
    3.9519   -1.1004    0.0000 C   0  0  0  0  0  0  0  0  0  0  0  0
    3.1652    0.2623    0.0000 C   0  0  0  0  0  0  0  0  0  0  0  0
    3.1599   -1.1066    0.0000 C   0  0  0  0  0  0  0  0  0  0  0  0
    2.7638   -0.4206    0.0000 C   0  0  0  0  0  0  0  0  0  0  0  0
    1.9333   -1.8337    0.0000 C   0  0  0  0  0  0  0  0  0  0  0  0
    1.5208   -1.1192    0.0000 C   0  0  0  0  0  0  0  0  0  0  0  0
    0.0000    0.0000    0.0000 H   0  0  0  0  0  0  0  0  0  0  0  0
    0.0000    0.0000    0.0000 H   0  0  0  0  0  0  0  0  0  0  0  0
    0.0000    0.0000    0.0000 H   0  0  0  0  0  0  0  0  0  0  0  0
    0.0000    0.0000    0.0000 H   0  0  0  0  0  0  0  0  0  0  0  0
    0.0000    0.0000    0.0000 H   0  0  0  0  0  0  0  0  0  0  0  0
    0.0000    0.0000    0.0000 H   0  0  0  0  0  0  0  0  0  0  0  0
    0.0000    0.0000    0.0000 H   0  0  0  0  0  0  0  0  0  0  0  0
    0.0000    0.0000    0.0000 H   0  0  0  0  0  0  0  0  0  0  0  0
    0.0000    0.0000    0.0000 H   0  0  0  0  0  0  0  0  0  0  0  0
    0.0000    0.0000    0.0000 H   0  0  0  0  0  0  0  0  0  0  0  0
    0.0000    0.0000    0.0000 H   0  0  0  0  0  0  0  0  0  0  0  0
    0.0000    0.0000    0.0000 H   0  0  0  0  0  0  0  0  0  0  0  0
    0.0000    0.0000    0.0000 H   0  0  0  0  0  0  0  0  0  0  0  0
  1  9  1  0
  1 10  1  0
  2 13  1  0
  2 15  2  0
  3 14  1  0
  3 16  2  0
  4  6  1  0
  4  7  1  0
  4  9  1  0
  5  6  1  0
  5  8  1  0
  5 10  1  0
  7  8  2  0
  7 11  1  0
  8 12  1  0
 11 13  2  0
 12 14  2  0
 13 14  1  0
 15 16  1  0
  1 17  1  0
  4 18  1  1
  5 19  1  6
  6 20  1  0
  6 21  1  0
  9 22  1  0
  9 23  1  0
 10 24  1  0
 10 25  1  0
 11 26  1  0
 12 27  1  0
 15 28  1  0
 16 29  1  0
M  END
>  <ALOGPS_LOGP>  (1) 
1.39

>  <ALOGPS_LOGS>  (1) 
-3.38

>  <ALOGPS_SOLUBILITY>  (1) 
8.77e-02 g/l

>  <DATABASE_ID>  (1) 
DB01273

>  <DATABASE_NAME>  (1) 
drugbank

>  <DRUGBANK_ID>  (1) 
DB01273

>  <DRUG_GROUPS>  (1) 
approved; investigational

>  <EXACT_MASS>  (1) 
211.110947431

>  <FORMULA>  (1) 
C13H13N3

>  <GENERIC_NAME>  (1) 
Varenicline

>  <INCHI_IDENTIFIER>  (1) 
InChI=1S/C13H13N3/c1-2-16-13-5-11-9-3-8(6-14-7-9)10(11)4-12(13)15-1/h1-2,4-5,8-9,14H,3,6-7H2/t8-,9+

>  <INCHI_KEY>  (1) 
JQSHBVHOMNKWFT-DTORHVGOSA-N

>  <JCHEM_ACCEPTOR_COUNT>  (1) 
3

>  <JCHEM_AVERAGE_POLARIZABILITY>  (1) 
23.11535472093646

>  <JCHEM_BIOAVAILABILITY>  (1) 
1

>  <JCHEM_DONOR_COUNT>  (1) 
1

>  <JCHEM_FORMAL_CHARGE>  (1) 
0

>  <JCHEM_GHOSE_FILTER>  (1) 
1

>  <JCHEM_IUPAC>  (1) 
(1R,12S)-5,8,14-triazatetracyclo[10.3.1.0²,¹¹.0⁴,⁹]hexadeca-2,4,6,8,10-pentaene

>  <JCHEM_LOGP>  (1) 
1.0076279959999996

>  <JCHEM_MDDR_LIKE_RULE>  (1) 
0

>  <JCHEM_NUMBER_OF_RINGS>  (1) 
4

>  <JCHEM_PHYSIOLOGICAL_CHARGE>  (1) 
1

>  <JCHEM_PKA_STRONGEST_BASIC>  (1) 
9.726333010947785

>  <JCHEM_POLAR_SURFACE_AREA>  (1) 
37.81

>  <JCHEM_REFRACTIVITY>  (1) 
61.30300000000001

>  <JCHEM_ROTATABLE_BOND_COUNT>  (1) 
0

>  <JCHEM_RULE_OF_FIVE>  (1) 
1

>  <JCHEM_TRADITIONAL_IUPAC>  (1) 
chantix

>  <JCHEM_VEBER_RULE>  (1) 
1

>  <MOLECULAR_WEIGHT>  (1) 
211.2624

>  <PRODUCTS>  (1) 
Champix; Chantix; Gd-varenicline

>  <SALTS>  (1) 
Varenicline tartrate

>  <SMILES>  (1) 
[H][C@]12C[C@]([H])(CNC1)C1=CC3=NC=CN=C3C=C21

$$$$
