1354
     RDKit          2D

 36 37  0  0  0  0  0  0  0  0999 V2000
    3.5679   -1.0775    0.0000 O   0  0  0  0  0  0  0  0  0  0  0  0
    4.9969    1.3976    0.0000 O   0  0  0  0  0  0  0  0  0  0  0  0
    6.4258   -1.0775    0.0000 O   0  0  0  0  0  0  0  0  0  0  0  0
    4.9969   -1.0775    0.0000 N   0  0  0  0  0  0  0  0  0  0  0  0
    5.7113    0.1601    0.0000 N   0  0  0  0  0  0  0  0  0  0  0  0
    4.2823    0.1601    0.0000 C   0  0  0  0  0  0  0  0  0  0  0  0
    3.4573    0.1601    0.0000 C   0  0  0  0  0  0  0  0  0  0  0  0
    3.0994    0.9033    0.0000 C   0  0  0  0  0  0  0  0  0  0  0  0
    2.2950    1.0870    0.0000 C   0  0  0  0  0  0  0  0  0  0  0  0
    3.8698    0.8745    0.0000 C   0  0  0  0  0  0  0  0  0  0  0  0
    1.6500    0.5726    0.0000 C   0  0  0  0  0  0  0  0  0  0  0  0
    1.6500   -0.2525    0.0000 C   0  0  0  0  0  0  0  0  0  0  0  0
    3.0994   -0.5833    0.0000 C   0  0  0  0  0  0  0  0  0  0  0  0
    2.2950   -0.7669    0.0000 C   0  0  0  0  0  0  0  0  0  0  0  0
    4.2823   -0.6650    0.0000 C   0  0  0  0  0  0  0  0  0  0  0  0
    4.9969    0.5726    0.0000 C   0  0  0  0  0  0  0  0  0  0  0  0
    4.2823    1.5890    0.0000 C   0  0  0  0  0  0  0  0  0  0  0  0
    5.7113   -0.6650    0.0000 C   0  0  0  0  0  0  0  0  0  0  0  0
    0.0000    0.0000    0.0000 H   0  0  0  0  0  0  0  0  0  0  0  0
    0.0000    0.0000    0.0000 H   0  0  0  0  0  0  0  0  0  0  0  0
    0.0000    0.0000    0.0000 H   0  0  0  0  0  0  0  0  0  0  0  0
    0.0000    0.0000    0.0000 H   0  0  0  0  0  0  0  0  0  0  0  0
    0.0000    0.0000    0.0000 H   0  0  0  0  0  0  0  0  0  0  0  0
    0.0000    0.0000    0.0000 H   0  0  0  0  0  0  0  0  0  0  0  0
    0.0000    0.0000    0.0000 H   0  0  0  0  0  0  0  0  0  0  0  0
    0.0000    0.0000    0.0000 H   0  0  0  0  0  0  0  0  0  0  0  0
    0.0000    0.0000    0.0000 H   0  0  0  0  0  0  0  0  0  0  0  0
    0.0000    0.0000    0.0000 H   0  0  0  0  0  0  0  0  0  0  0  0
    0.0000    0.0000    0.0000 H   0  0  0  0  0  0  0  0  0  0  0  0
    0.0000    0.0000    0.0000 H   0  0  0  0  0  0  0  0  0  0  0  0
    0.0000    0.0000    0.0000 H   0  0  0  0  0  0  0  0  0  0  0  0
    0.0000    0.0000    0.0000 H   0  0  0  0  0  0  0  0  0  0  0  0
    0.0000    0.0000    0.0000 H   0  0  0  0  0  0  0  0  0  0  0  0
    0.0000    0.0000    0.0000 H   0  0  0  0  0  0  0  0  0  0  0  0
    0.0000    0.0000    0.0000 H   0  0  0  0  0  0  0  0  0  0  0  0
    0.0000    0.0000    0.0000 H   0  0  0  0  0  0  0  0  0  0  0  0
  1 15  2  0
  2 16  2  0
  3 18  2  0
  4 15  1  0
  4 18  1  0
  5 16  1  0
  5 18  1  0
  6  7  1  0
  6 10  1  0
  6 15  1  0
  6 16  1  0
  7  8  1  0
  7 13  2  0
  8  9  1  0
  9 11  1  0
 10 17  1  0
 11 12  1  0
 12 14  1  0
 13 14  1  0
  4 19  1  0
  5 20  1  0
  8 21  1  0
  8 22  1  0
  9 23  1  0
  9 24  1  0
 10 25  1  0
 10 26  1  0
 11 27  1  0
 11 28  1  0
 12 29  1  0
 12 30  1  0
 13 31  1  0
 14 32  1  0
 14 33  1  0
 17 34  1  0
 17 35  1  0
 17 36  1  0
M  END
>  <ALOGPS_LOGP>  (1) 
2.41

>  <ALOGPS_LOGS>  (1) 
-2.89

>  <ALOGPS_SOLUBILITY>  (1) 
3.24e-01 g/l

>  <DATABASE_ID>  (1) 
DB01354

>  <DATABASE_NAME>  (1) 
drugbank

>  <DRUGBANK_ID>  (1) 
DB01354

>  <DRUG_GROUPS>  (1) 
approved

>  <EXACT_MASS>  (1) 
250.131742452

>  <FORMULA>  (1) 
C13H18N2O3

>  <GENERIC_NAME>  (1) 
Heptabarbital

>  <INCHI_IDENTIFIER>  (1) 
InChI=1S/C13H18N2O3/c1-2-13(9-7-5-3-4-6-8-9)10(16)14-12(18)15-11(13)17/h7H,2-6,8H2,1H3,(H2,14,15,16,17,18)

>  <INCHI_KEY>  (1) 
PAZQYDJGLKSCSI-UHFFFAOYSA-N

>  <INTERNATIONAL_BRANDS>  (1) 
Medomin; Medomine

>  <JCHEM_ACCEPTOR_COUNT>  (1) 
3

>  <JCHEM_AVERAGE_POLARIZABILITY>  (1) 
25.857658484912278

>  <JCHEM_BIOAVAILABILITY>  (1) 
1

>  <JCHEM_DONOR_COUNT>  (1) 
2

>  <JCHEM_FORMAL_CHARGE>  (1) 
0

>  <JCHEM_GHOSE_FILTER>  (1) 
1

>  <JCHEM_IUPAC>  (1) 
5-(cyclohept-1-en-1-yl)-5-ethyl-1,3-diazinane-2,4,6-trione

>  <JCHEM_LOGP>  (1) 
1.9130831926666663

>  <JCHEM_MDDR_LIKE_RULE>  (1) 
0

>  <JCHEM_NUMBER_OF_RINGS>  (1) 
2

>  <JCHEM_PHYSIOLOGICAL_CHARGE>  (1) 
0

>  <JCHEM_PKA>  (1) 
11.806314442929297

>  <JCHEM_PKA_STRONGEST_ACIDIC>  (1) 
8.140078077502258

>  <JCHEM_POLAR_SURFACE_AREA>  (1) 
75.27

>  <JCHEM_REFRACTIVITY>  (1) 
66.2527

>  <JCHEM_ROTATABLE_BOND_COUNT>  (1) 
2

>  <JCHEM_RULE_OF_FIVE>  (1) 
1

>  <JCHEM_TRADITIONAL_IUPAC>  (1) 
heptabarbital

>  <JCHEM_VEBER_RULE>  (1) 
0

>  <MOLECULAR_WEIGHT>  (1) 
250.2936

>  <SMILES>  (1) 
CCC1(C(=O)NC(=O)NC1=O)C1=CCCCCC1

$$$$
