1102
     RDKit          2D

 46 47  0  0  1  0  0  0  0  0999 V2000
    2.8075   -0.7466    0.0000 O   0  0  0  0  0  0  0  0  0  0  0  0
    2.0930   -3.6342    0.0000 O   0  0  0  0  0  0  0  0  0  0  0  0
    3.5220   -4.4592    0.0000 O   0  0  0  0  0  0  0  0  0  0  0  0
    8.5234    4.2035    0.0000 O   0  0  0  0  0  0  0  0  0  0  0  0
    4.2365    0.0784    0.0000 N   0  0  0  0  0  0  0  0  0  0  0  0
    4.9509    1.3159    0.0000 C   0  0  0  0  0  0  0  0  0  0  0  0
    5.6655    1.7284    0.0000 C   0  0  0  0  0  0  0  0  0  0  0  0
    4.9509    0.4909    0.0000 C   0  0  0  0  0  0  0  0  0  0  0  0
    4.2365   -0.7466    0.0000 C   0  0  0  0  0  0  0  0  0  0  0  0
    5.6655    2.5534    0.0000 C   0  0  0  0  0  0  0  0  0  0  0  0
    3.5220   -1.1592    0.0000 C   0  0  0  0  0  0  0  0  0  0  0  0
    6.3799    2.9659    0.0000 C   0  0  0  0  0  0  0  0  0  0  0  0
    3.5220   -1.9842    0.0000 C   0  0  0  0  0  0  0  0  0  0  0  0
    2.8075   -2.3967    0.0000 C   0  0  0  0  0  0  0  0  0  0  0  0
    4.2365   -2.3967    0.0000 C   0  0  0  0  0  0  0  0  0  0  0  0
    6.3799    3.7910    0.0000 C   0  0  0  0  0  0  0  0  0  0  0  0
    7.0944    2.5534    0.0000 C   0  0  0  0  0  0  0  0  0  0  0  0
    2.8075   -3.2217    0.0000 C   0  0  0  0  0  0  0  0  0  0  0  0
    4.2365   -3.2217    0.0000 C   0  0  0  0  0  0  0  0  0  0  0  0
    7.0944    4.2035    0.0000 C   0  0  0  0  0  0  0  0  0  0  0  0
    7.8089    2.9659    0.0000 C   0  0  0  0  0  0  0  0  0  0  0  0
    3.5220   -3.6342    0.0000 C   0  0  0  0  0  0  0  0  0  0  0  0
    7.8089    3.7910    0.0000 C   0  0  0  0  0  0  0  0  0  0  0  0
    0.0000    0.0000    0.0000 H   0  0  0  0  0  0  0  0  0  0  0  0
    0.0000    0.0000    0.0000 H   0  0  0  0  0  0  0  0  0  0  0  0
    0.0000    0.0000    0.0000 H   0  0  0  0  0  0  0  0  0  0  0  0
    0.0000    0.0000    0.0000 H   0  0  0  0  0  0  0  0  0  0  0  0
    0.0000    0.0000    0.0000 H   0  0  0  0  0  0  0  0  0  0  0  0
    0.0000    0.0000    0.0000 H   0  0  0  0  0  0  0  0  0  0  0  0
    0.0000    0.0000    0.0000 H   0  0  0  0  0  0  0  0  0  0  0  0
    0.0000    0.0000    0.0000 H   0  0  0  0  0  0  0  0  0  0  0  0
    0.0000    0.0000    0.0000 H   0  0  0  0  0  0  0  0  0  0  0  0
    0.0000    0.0000    0.0000 H   0  0  0  0  0  0  0  0  0  0  0  0
    0.0000    0.0000    0.0000 H   0  0  0  0  0  0  0  0  0  0  0  0
    0.0000    0.0000    0.0000 H   0  0  0  0  0  0  0  0  0  0  0  0
    0.0000    0.0000    0.0000 H   0  0  0  0  0  0  0  0  0  0  0  0
    0.0000    0.0000    0.0000 H   0  0  0  0  0  0  0  0  0  0  0  0
    0.0000    0.0000    0.0000 H   0  0  0  0  0  0  0  0  0  0  0  0
    0.0000    0.0000    0.0000 H   0  0  0  0  0  0  0  0  0  0  0  0
    0.0000    0.0000    0.0000 H   0  0  0  0  0  0  0  0  0  0  0  0
    0.0000    0.0000    0.0000 H   0  0  0  0  0  0  0  0  0  0  0  0
    0.0000    0.0000    0.0000 H   0  0  0  0  0  0  0  0  0  0  0  0
    0.0000    0.0000    0.0000 H   0  0  0  0  0  0  0  0  0  0  0  0
    0.0000    0.0000    0.0000 H   0  0  0  0  0  0  0  0  0  0  0  0
    0.0000    0.0000    0.0000 H   0  0  0  0  0  0  0  0  0  0  0  0
    0.0000    0.0000    0.0000 H   0  0  0  0  0  0  0  0  0  0  0  0
 11  1  1  1
  2 18  1  0
  3 22  1  0
  4 23  1  0
  5  8  1  0
  5  9  1  0
  6  7  1  0
  6  8  1  0
  7 10  1  0
  9 11  1  0
 10 12  1  0
 11 13  1  0
 12 16  2  0
 12 17  1  0
 13 14  2  0
 13 15  1  0
 14 18  1  0
 15 19  2  0
 16 20  1  0
 17 21  2  0
 18 22  2  0
 19 22  1  0
 20 23  2  0
 21 23  1  0
  1 24  1  0
  2 25  1  0
  3 26  1  0
  4 27  1  0
  5 28  1  0
  6 29  1  0
  6 30  1  0
  7 31  1  0
  7 32  1  0
  8 33  1  0
  8 34  1  0
  9 35  1  0
  9 36  1  0
 10 37  1  0
 10 38  1  0
 11 39  1  0
 14 40  1  0
 15 41  1  0
 16 42  1  0
 17 43  1  0
 19 44  1  0
 20 45  1  0
 21 46  1  0
M  END
>  <ALOGPS_LOGP>  (1) 
2.08

>  <ALOGPS_LOGS>  (1) 
-3.58

>  <ALOGPS_SOLUBILITY>  (1) 
8.42e-02 g/l

>  <DATABASE_ID>  (1) 
DB01102

>  <DATABASE_NAME>  (1) 
drugbank

>  <DRUGBANK_ID>  (1) 
DB01102

>  <DRUG_GROUPS>  (1) 
approved

>  <EXACT_MASS>  (1) 
317.162708229

>  <FORMULA>  (1) 
C18H23NO4

>  <GENERIC_NAME>  (1) 
Arbutamine

>  <INCHI_IDENTIFIER>  (1) 
InChI=1S/C18H23NO4/c20-15-7-4-13(5-8-15)3-1-2-10-19-12-18(23)14-6-9-16(21)17(22)11-14/h4-9,11,18-23H,1-3,10,12H2/t18-/m0/s1

>  <INCHI_KEY>  (1) 
IIRWWTKISYTTBL-SFHVURJKSA-N

>  <JCHEM_ACCEPTOR_COUNT>  (1) 
5

>  <JCHEM_AVERAGE_POLARIZABILITY>  (1) 
35.5440906533178

>  <JCHEM_BIOAVAILABILITY>  (1) 
1

>  <JCHEM_DONOR_COUNT>  (1) 
5

>  <JCHEM_FORMAL_CHARGE>  (1) 
0

>  <JCHEM_GHOSE_FILTER>  (1) 
1

>  <JCHEM_IUPAC>  (1) 
4-[(1R)-1-hydroxy-2-{[4-(4-hydroxyphenyl)butyl]amino}ethyl]benzene-1,2-diol

>  <JCHEM_LOGP>  (1) 
1.9953032245022408

>  <JCHEM_MDDR_LIKE_RULE>  (1) 
0

>  <JCHEM_NUMBER_OF_RINGS>  (1) 
2

>  <JCHEM_PHYSIOLOGICAL_CHARGE>  (1) 
1

>  <JCHEM_PKA>  (1) 
10.442234462502894

>  <JCHEM_PKA_STRONGEST_ACIDIC>  (1) 
8.96653532193289

>  <JCHEM_PKA_STRONGEST_BASIC>  (1) 
9.759931277265373

>  <JCHEM_POLAR_SURFACE_AREA>  (1) 
92.95

>  <JCHEM_REFRACTIVITY>  (1) 
89.78080000000001

>  <JCHEM_ROTATABLE_BOND_COUNT>  (1) 
8

>  <JCHEM_RULE_OF_FIVE>  (1) 
1

>  <JCHEM_TRADITIONAL_IUPAC>  (1) 
arbutamine

>  <JCHEM_VEBER_RULE>  (1) 
0

>  <MOLECULAR_WEIGHT>  (1) 
317.3795

>  <SALTS>  (1) 
Arbutamine hydrochloride

>  <SECONDARY_ACCESSION_NUMBERS>  (1) 
APRD00802

>  <SMILES>  (1) 
O[C@@H](CNCCCCC1=CC=C(O)C=C1)C1=CC(O)=C(O)C=C1

$$$$
