1567
     RDKit          2D

 33 35  0  0  0  0  0  0  0  0999 V2000
    2.8171   -2.3592    0.0000 Cl  0  0  0  0  0  0  0  0  0  0  0  0
    3.8785   -1.4649    0.0000 F   0  0  0  0  0  0  0  0  0  0  0  0
    2.6107    2.3592    0.0000 O   0  0  0  0  0  0  0  0  0  0  0  0
    2.4542    0.9709    0.0000 N   0  0  0  0  0  0  0  0  0  0  0  0
    4.3080    0.9709    0.0000 N   0  0  0  0  0  0  0  0  0  0  0  0
    3.3811   -0.1914    0.0000 C   0  0  0  0  0  0  0  0  0  0  0  0
    2.6378    0.1666    0.0000 C   0  0  0  0  0  0  0  0  0  0  0  0
    4.1244    0.1666    0.0000 C   0  0  0  0  0  0  0  0  0  0  0  0
    3.7936    1.6159    0.0000 C   0  0  0  0  0  0  0  0  0  0  0  0
    4.7694   -0.3478    0.0000 C   0  0  0  0  0  0  0  0  0  0  0  0
    2.9686    1.6159    0.0000 C   0  0  0  0  0  0  0  0  0  0  0  0
    3.4586   -1.0472    0.0000 C   0  0  0  0  0  0  0  0  0  0  0  0
    1.9205   -0.3065    0.0000 C   0  0  0  0  0  0  0  0  0  0  0  0
    1.6500    1.1545    0.0000 C   0  0  0  0  0  0  0  0  0  0  0  0
    2.7523   -1.5367    0.0000 C   0  0  0  0  0  0  0  0  0  0  0  0
    1.9781   -1.1639    0.0000 C   0  0  0  0  0  0  0  0  0  0  0  0
    4.6465   -1.1636    0.0000 C   0  0  0  0  0  0  0  0  0  0  0  0
    5.5374   -0.0464    0.0000 C   0  0  0  0  0  0  0  0  0  0  0  0
    5.2914   -1.6779    0.0000 C   0  0  0  0  0  0  0  0  0  0  0  0
    6.1823   -0.5607    0.0000 C   0  0  0  0  0  0  0  0  0  0  0  0
    6.0594   -1.3765    0.0000 C   0  0  0  0  0  0  0  0  0  0  0  0
    0.0000    0.0000    0.0000 H   0  0  0  0  0  0  0  0  0  0  0  0
    0.0000    0.0000    0.0000 H   0  0  0  0  0  0  0  0  0  0  0  0
    0.0000    0.0000    0.0000 H   0  0  0  0  0  0  0  0  0  0  0  0
    0.0000    0.0000    0.0000 H   0  0  0  0  0  0  0  0  0  0  0  0
    0.0000    0.0000    0.0000 H   0  0  0  0  0  0  0  0  0  0  0  0
    0.0000    0.0000    0.0000 H   0  0  0  0  0  0  0  0  0  0  0  0
    0.0000    0.0000    0.0000 H   0  0  0  0  0  0  0  0  0  0  0  0
    0.0000    0.0000    0.0000 H   0  0  0  0  0  0  0  0  0  0  0  0
    0.0000    0.0000    0.0000 H   0  0  0  0  0  0  0  0  0  0  0  0
    0.0000    0.0000    0.0000 H   0  0  0  0  0  0  0  0  0  0  0  0
    0.0000    0.0000    0.0000 H   0  0  0  0  0  0  0  0  0  0  0  0
    0.0000    0.0000    0.0000 H   0  0  0  0  0  0  0  0  0  0  0  0
  1 15  1  0
  2 17  1  0
  3 11  2  0
  4  7  1  0
  4 11  1  0
  4 14  1  0
  5  8  2  0
  5  9  1  0
  6  7  2  0
  6  8  1  0
  6 12  1  0
  7 13  1  0
  8 10  1  0
  9 11  1  0
 10 17  2  0
 10 18  1  0
 12 15  2  0
 13 16  2  0
 15 16  1  0
 17 19  1  0
 18 20  2  0
 19 21  2  0
 20 21  1  0
  9 22  1  0
  9 23  1  0
 12 24  1  0
 13 25  1  0
 14 26  1  0
 14 27  1  0
 14 28  1  0
 16 29  1  0
 18 30  1  0
 19 31  1  0
 20 32  1  0
 21 33  1  0
M  END
>  <ALOGPS_LOGP>  (1) 
2.83

>  <ALOGPS_LOGS>  (1) 
-4.32

>  <ALOGPS_SOLUBILITY>  (1) 
1.44e-02 g/l

>  <DATABASE_ID>  (1) 
DB01567

>  <DATABASE_NAME>  (1) 
drugbank

>  <DRUGBANK_ID>  (1) 
DB01567

>  <DRUG_GROUPS>  (1) 
approved; illicit

>  <EXACT_MASS>  (1) 
302.062218928

>  <FORMULA>  (1) 
C16H12ClFN2O

>  <GENERIC_NAME>  (1) 
Fludiazepam

>  <INCHI_IDENTIFIER>  (1) 
InChI=1S/C16H12ClFN2O/c1-20-14-7-6-10(17)8-12(14)16(19-9-15(20)21)11-4-2-3-5-13(11)18/h2-8H,9H2,1H3

>  <INCHI_KEY>  (1) 
ROYOYTLGDLIGBX-UHFFFAOYSA-N

>  <INTERNATIONAL_BRANDS>  (1) 
Erispan

>  <JCHEM_ACCEPTOR_COUNT>  (1) 
2

>  <JCHEM_AVERAGE_POLARIZABILITY>  (1) 
29.45257506451923

>  <JCHEM_BIOAVAILABILITY>  (1) 
1

>  <JCHEM_DONOR_COUNT>  (1) 
0

>  <JCHEM_FORMAL_CHARGE>  (1) 
0

>  <JCHEM_GHOSE_FILTER>  (1) 
1

>  <JCHEM_IUPAC>  (1) 
7-chloro-5-(2-fluorophenyl)-1-methyl-2,3-dihydro-1H-1,4-benzodiazepin-2-one

>  <JCHEM_LOGP>  (1) 
3.218788503666667

>  <JCHEM_MDDR_LIKE_RULE>  (1) 
0

>  <JCHEM_NUMBER_OF_RINGS>  (1) 
3

>  <JCHEM_PHYSIOLOGICAL_CHARGE>  (1) 
0

>  <JCHEM_PKA_STRONGEST_BASIC>  (1) 
1.8889263261678797

>  <JCHEM_POLAR_SURFACE_AREA>  (1) 
32.67

>  <JCHEM_REFRACTIVITY>  (1) 
80.02830000000003

>  <JCHEM_ROTATABLE_BOND_COUNT>  (1) 
1

>  <JCHEM_RULE_OF_FIVE>  (1) 
1

>  <JCHEM_TRADITIONAL_IUPAC>  (1) 
fludiazepam

>  <JCHEM_VEBER_RULE>  (1) 
1

>  <MOLECULAR_WEIGHT>  (1) 
302.731

>  <SMILES>  (1) 
CN1C2=C(C=C(Cl)C=C2)C(=NCC1=O)C1=CC=CC=C1F

>  <SYNONYMS>  (1) 
Fludiazepamum

$$$$
