AND
     RDKit          2D

 49 52  0  0  0  0  0  0  0  0999 V2000
    1.4289   -0.5277    0.0000 C   0  0  0  0  0  0  0  0  0  0  0  0
    2.2410   -0.3824    0.0000 C   0  0  0  0  0  0  0  0  0  0  0  0
    2.5213    0.3935    0.0000 C   0  0  0  0  0  0  0  0  0  0  0  0
    3.3334    0.5387    0.0000 O   0  0  0  0  0  0  0  0  0  0  0  0
    1.9895    1.0242    0.0000 C   0  0  0  0  0  0  0  0  0  0  0  0
    1.1774    0.8790    0.0000 C   0  0  0  0  0  0  0  0  0  0  0  0
    0.6455    1.5097    0.0000 C   0  0  0  0  0  0  0  0  0  0  0  0
   -0.1666    1.3645    0.0000 C   0  0  0  0  0  0  0  0  0  0  0  0
   -0.4469    0.5885    0.0000 C   0  0  0  0  0  0  0  0  0  0  0  0
    0.0849   -0.0422    0.0000 C   0  0  0  0  0  0  0  0  0  0  0  0
    0.8971    0.1030    0.0000 C   0  0  0  0  0  0  0  0  0  0  0  0
   -0.1954   -0.8181    0.0000 C   0  0  0  0  0  0  0  0  0  0  0  0
   -1.0075   -0.9633    0.0000 C   0  0  0  0  0  0  0  0  0  0  0  0
   -1.5393   -0.3326    0.0000 C   0  0  0  0  0  0  0  0  0  0  0  0
   -1.2590    0.4433    0.0000 C   0  0  0  0  0  0  0  0  0  0  0  0
   -1.9103    0.9497    0.0000 C   0  0  0  0  0  0  0  0  0  0  0  0
   -2.5932    0.4867    0.0000 C   0  0  0  0  0  0  0  0  0  0  0  0
   -2.3639   -0.3058    0.0000 C   0  0  0  0  0  0  0  0  0  0  0  0
   -2.8702   -0.9571    0.0000 O   0  0  0  0  0  0  0  0  0  0  0  0
   -1.8992   -1.0750    0.0000 C   0  0  0  0  0  0  0  0  0  0  0  0
    0.6168   -0.6729    0.0000 C   0  0  0  0  0  0  0  0  0  0  0  0
    0.0000    0.0000    0.0000 H   0  0  0  0  0  0  0  0  0  0  0  0
    0.0000    0.0000    0.0000 H   0  0  0  0  0  0  0  0  0  0  0  0
    0.0000    0.0000    0.0000 H   0  0  0  0  0  0  0  0  0  0  0  0
    0.0000    0.0000    0.0000 H   0  0  0  0  0  0  0  0  0  0  0  0
    0.0000    0.0000    0.0000 H   0  0  0  0  0  0  0  0  0  0  0  0
    0.0000    0.0000    0.0000 H   0  0  0  0  0  0  0  0  0  0  0  0
    0.0000    0.0000    0.0000 H   0  0  0  0  0  0  0  0  0  0  0  0
    0.0000    0.0000    0.0000 H   0  0  0  0  0  0  0  0  0  0  0  0
    0.0000    0.0000    0.0000 H   0  0  0  0  0  0  0  0  0  0  0  0
    0.0000    0.0000    0.0000 H   0  0  0  0  0  0  0  0  0  0  0  0
    0.0000    0.0000    0.0000 H   0  0  0  0  0  0  0  0  0  0  0  0
    0.0000    0.0000    0.0000 H   0  0  0  0  0  0  0  0  0  0  0  0
    0.0000    0.0000    0.0000 H   0  0  0  0  0  0  0  0  0  0  0  0
    0.0000    0.0000    0.0000 H   0  0  0  0  0  0  0  0  0  0  0  0
    0.0000    0.0000    0.0000 H   0  0  0  0  0  0  0  0  0  0  0  0
    0.0000    0.0000    0.0000 H   0  0  0  0  0  0  0  0  0  0  0  0
    0.0000    0.0000    0.0000 H   0  0  0  0  0  0  0  0  0  0  0  0
    0.0000    0.0000    0.0000 H   0  0  0  0  0  0  0  0  0  0  0  0
    0.0000    0.0000    0.0000 H   0  0  0  0  0  0  0  0  0  0  0  0
    0.0000    0.0000    0.0000 H   0  0  0  0  0  0  0  0  0  0  0  0
    0.0000    0.0000    0.0000 H   0  0  0  0  0  0  0  0  0  0  0  0
    0.0000    0.0000    0.0000 H   0  0  0  0  0  0  0  0  0  0  0  0
    0.0000    0.0000    0.0000 H   0  0  0  0  0  0  0  0  0  0  0  0
    0.0000    0.0000    0.0000 H   0  0  0  0  0  0  0  0  0  0  0  0
    0.0000    0.0000    0.0000 H   0  0  0  0  0  0  0  0  0  0  0  0
    0.0000    0.0000    0.0000 H   0  0  0  0  0  0  0  0  0  0  0  0
    0.0000    0.0000    0.0000 H   0  0  0  0  0  0  0  0  0  0  0  0
    0.0000    0.0000    0.0000 H   0  0  0  0  0  0  0  0  0  0  0  0
  1  2  1  0
  1 11  1  0
  2  3  1  0
  3  4  1  6
  3  5  1  0
  5  6  1  0
  6  7  2  0
  6 11  1  0
  7  8  1  0
  8  9  1  0
  9 10  1  0
  9 15  1  0
 10 11  1  0
 10 12  1  0
 11 21  1  1
 12 13  1  0
 13 14  1  0
 14 15  1  0
 14 18  1  0
 14 20  1  1
 15 16  1  0
 16 17  1  0
 17 18  1  0
 18 19  2  0
  1 22  1  0
  1 23  1  0
  2 24  1  0
  2 25  1  0
  3 26  1  0
  4 27  1  0
  5 28  1  0
  5 29  1  0
  7 30  1  0
  8 31  1  0
  8 32  1  0
  9 33  1  1
 10 34  1  6
 12 35  1  0
 12 36  1  0
 13 37  1  0
 13 38  1  0
 15 39  1  6
 16 40  1  0
 16 41  1  0
 17 42  1  0
 17 43  1  0
 20 44  1  0
 20 45  1  0
 20 46  1  0
 21 47  1  0
 21 48  1  0
 21 49  1  0
M  END
>  <ALOGPS_LOGP>  (1) 
3.53

>  <ALOGPS_LOGS>  (1) 
-3.82

>  <ALOGPS_SOLUBILITY>  (1) 
4.38e-02 g/l

>  <DATABASE_ID>  (1) 
DB01708

>  <DATABASE_NAME>  (1) 
drugbank

>  <DRUGBANK_ID>  (1) 
DB01708

>  <DRUG_GROUPS>  (1) 
approved; nutraceutical

>  <EXACT_MASS>  (1) 
288.20893014

>  <FORMULA>  (1) 
C19H28O2

>  <GENERIC_NAME>  (1) 
Prasterone

>  <INCHI_IDENTIFIER>  (1) 
InChI=1S/C19H28O2/c1-18-9-7-13(20)11-12(18)3-4-14-15-5-6-17(21)19(15,2)10-8-16(14)18/h3,13-16,20H,4-11H2,1-2H3/t13-,14-,15-,16-,18-,19-/m0/s1

>  <INCHI_KEY>  (1) 
FMGSKLZLMKYGDP-USOAJAOKSA-N

>  <INTERNATIONAL_BRANDS>  (1) 
Fidelin; OVIGYN-D

>  <JCHEM_ACCEPTOR_COUNT>  (1) 
2

>  <JCHEM_AVERAGE_POLARIZABILITY>  (1) 
34.094008682923715

>  <JCHEM_BIOAVAILABILITY>  (1) 
1

>  <JCHEM_DONOR_COUNT>  (1) 
1

>  <JCHEM_FORMAL_CHARGE>  (1) 
0

>  <JCHEM_GHOSE_FILTER>  (1) 
1

>  <JCHEM_IUPAC>  (1) 
(1S,2R,5S,10R,11S,15S)-5-hydroxy-2,15-dimethyltetracyclo[8.7.0.0²,⁷.0¹¹,¹⁵]heptadec-7-en-14-one

>  <JCHEM_LOGP>  (1) 
3.361705055333334

>  <JCHEM_MDDR_LIKE_RULE>  (1) 
0

>  <JCHEM_NUMBER_OF_RINGS>  (1) 
4

>  <JCHEM_PHYSIOLOGICAL_CHARGE>  (1) 
0

>  <JCHEM_PKA>  (1) 
19.957705855663583

>  <JCHEM_PKA_STRONGEST_ACIDIC>  (1) 
18.204289505502594

>  <JCHEM_PKA_STRONGEST_BASIC>  (1) 
-1.3972434077338853

>  <JCHEM_POLAR_SURFACE_AREA>  (1) 
37.3

>  <JCHEM_REFRACTIVITY>  (1) 
84.65889999999999

>  <JCHEM_ROTATABLE_BOND_COUNT>  (1) 
0

>  <JCHEM_RULE_OF_FIVE>  (1) 
1

>  <JCHEM_TRADITIONAL_IUPAC>  (1) 
dehydroepiandrosterone

>  <JCHEM_VEBER_RULE>  (1) 
1

>  <MOLECULAR_WEIGHT>  (1) 
288.4244

>  <PRODUCTS>  (1) 
Intrarosa; Prastera

>  <SECONDARY_ACCESSION_NUMBERS>  (1) 
EXPT00519; DB06593

>  <SMILES>  (1) 
[H][C@@]12CCC(=O)[C@@]1(C)CC[C@@]1([H])[C@@]2([H])CC=C2C[C@@]([H])(O)CC[C@]12C

>  <SYNONYMS>  (1) 
3-beta-hydroxy-5-androsten-17-one; 3beta-hydroxyandrost-5-en-17-one; 3β-hydroxyandrost-5-en-17-one; Dehydroandrosterone; Dehydroepiandrosterone; Dehydroisoandrosterone; DHEA

$$$$
