1030
     RDKit          2D

 54 58  0  0  1  0  0  0  0  0999 V2000
    5.5924    3.9997    0.0000 O   0  0  0  0  0  0  0  0  0  0  0  0
    6.7341    1.9917    0.0000 O   0  0  0  0  0  0  0  0  0  0  0  0
    3.4360    2.7051    0.0000 O   0  0  0  0  0  0  0  0  0  0  0  0
    7.0526    3.9798    0.0000 O   0  0  0  0  0  0  0  0  0  0  0  0
    3.8154   -3.5845    0.0000 O   0  0  0  0  0  0  0  0  0  0  0  0
    4.1504    1.4677    0.0000 N   0  0  0  0  0  0  0  0  0  0  0  0
    5.2044   -0.4301    0.0000 N   0  0  0  0  0  0  0  0  0  0  0  0
    2.4712   -2.9335    0.0000 N   0  0  0  0  0  0  0  0  0  0  0  0
    6.3300    2.7108    0.0000 C   0  0  0  0  0  0  0  0  0  0  0  0
    5.5793    2.2927    0.0000 C   0  0  0  0  0  0  0  0  0  0  0  0
    4.8648    1.0552    0.0000 C   0  0  0  0  0  0  0  0  0  0  0  0
    3.5424    0.9174    0.0000 C   0  0  0  0  0  0  0  0  0  0  0  0
    4.8648    2.7051    0.0000 C   0  0  0  0  0  0  0  0  0  0  0  0
    3.8767    0.1685    0.0000 C   0  0  0  0  0  0  0  0  0  0  0  0
    4.6922    0.2536    0.0000 C   0  0  0  0  0  0  0  0  0  0  0  0
    5.5793    1.4677    0.0000 C   0  0  0  0  0  0  0  0  0  0  0  0
    4.1504    2.2927    0.0000 C   0  0  0  0  0  0  0  0  0  0  0  0
    7.1549    2.7012    0.0000 C   0  0  0  0  0  0  0  0  0  0  0  0
    4.8516    3.5643    0.0000 C   0  0  0  0  0  0  0  0  0  0  0  0
    6.3366    3.5701    0.0000 C   0  0  0  0  0  0  0  0  0  0  0  0
    3.5165   -0.6060    0.0000 C   0  0  0  0  0  0  0  0  0  0  0  0
    4.0127   -1.3013    0.0000 C   0  0  0  0  0  0  0  0  0  0  0  0
    4.8622   -1.2128    0.0000 C   0  0  0  0  0  0  0  0  0  0  0  0
    3.6376   -2.1082    0.0000 C   0  0  0  0  0  0  0  0  0  0  0  0
    7.5589    1.9821    0.0000 C   0  0  0  0  0  0  0  0  0  0  0  0
    2.8161   -2.1842    0.0000 C   0  0  0  0  0  0  0  0  0  0  0  0
    5.3957   -1.9249    0.0000 C   0  0  0  0  0  0  0  0  0  0  0  0
    4.1543   -2.8325    0.0000 C   0  0  0  0  0  0  0  0  0  0  0  0
    5.0394   -2.7402    0.0000 C   0  0  0  0  0  0  0  0  0  0  0  0
    1.6499   -3.0096    0.0000 C   0  0  0  0  0  0  0  0  0  0  0  0
    2.9478   -3.6070    0.0000 C   0  0  0  0  0  0  0  0  0  0  0  0
    0.0000    0.0000    0.0000 H   0  0  0  0  0  0  0  0  0  0  0  0
    0.0000    0.0000    0.0000 H   0  0  0  0  0  0  0  0  0  0  0  0
    0.0000    0.0000    0.0000 H   0  0  0  0  0  0  0  0  0  0  0  0
    0.0000    0.0000    0.0000 H   0  0  0  0  0  0  0  0  0  0  0  0
    0.0000    0.0000    0.0000 H   0  0  0  0  0  0  0  0  0  0  0  0
    0.0000    0.0000    0.0000 H   0  0  0  0  0  0  0  0  0  0  0  0
    0.0000    0.0000    0.0000 H   0  0  0  0  0  0  0  0  0  0  0  0
    0.0000    0.0000    0.0000 H   0  0  0  0  0  0  0  0  0  0  0  0
    0.0000    0.0000    0.0000 H   0  0  0  0  0  0  0  0  0  0  0  0
    0.0000    0.0000    0.0000 H   0  0  0  0  0  0  0  0  0  0  0  0
    0.0000    0.0000    0.0000 H   0  0  0  0  0  0  0  0  0  0  0  0
    0.0000    0.0000    0.0000 H   0  0  0  0  0  0  0  0  0  0  0  0
    0.0000    0.0000    0.0000 H   0  0  0  0  0  0  0  0  0  0  0  0
    0.0000    0.0000    0.0000 H   0  0  0  0  0  0  0  0  0  0  0  0
    0.0000    0.0000    0.0000 H   0  0  0  0  0  0  0  0  0  0  0  0
    0.0000    0.0000    0.0000 H   0  0  0  0  0  0  0  0  0  0  0  0
    0.0000    0.0000    0.0000 H   0  0  0  0  0  0  0  0  0  0  0  0
    0.0000    0.0000    0.0000 H   0  0  0  0  0  0  0  0  0  0  0  0
    0.0000    0.0000    0.0000 H   0  0  0  0  0  0  0  0  0  0  0  0
    0.0000    0.0000    0.0000 H   0  0  0  0  0  0  0  0  0  0  0  0
    0.0000    0.0000    0.0000 H   0  0  0  0  0  0  0  0  0  0  0  0
    0.0000    0.0000    0.0000 H   0  0  0  0  0  0  0  0  0  0  0  0
    0.0000    0.0000    0.0000 H   0  0  0  0  0  0  0  0  0  0  0  0
  1 19  1  0
  1 20  1  0
  9  2  1  1
  3 17  2  0
  4 20  2  0
  5 28  1  0
  6 11  1  0
  6 12  1  0
  6 17  1  0
  7 15  2  0
  7 23  1  0
  8 26  1  0
  8 30  1  0
  8 31  1  0
  9 10  1  0
  9 18  1  0
  9 20  1  0
 10 13  2  0
 10 16  1  0
 11 15  1  0
 11 16  2  0
 12 14  1  0
 13 17  1  0
 13 19  1  0
 14 15  1  0
 14 21  2  0
 18 25  1  0
 21 22  1  0
 22 23  2  0
 22 24  1  0
 23 27  1  0
 24 26  1  0
 24 28  2  0
 27 29  2  0
 28 29  1  0
  2 32  1  0
  5 33  1  0
 12 34  1  0
 12 35  1  0
 16 36  1  0
 18 37  1  0
 18 38  1  0
 19 39  1  0
 19 40  1  0
 21 41  1  0
 25 42  1  0
 25 43  1  0
 25 44  1  0
 26 45  1  0
 26 46  1  0
 27 47  1  0
 29 48  1  0
 30 49  1  0
 30 50  1  0
 30 51  1  0
 31 52  1  0
 31 53  1  0
 31 54  1  0
M  END
>  <ALOGPS_LOGP>  (1) 
1.84

>  <ALOGPS_LOGS>  (1) 
-2.69

>  <ALOGPS_SOLUBILITY>  (1) 
8.61e-01 g/l

>  <DATABASE_ID>  (1) 
DB01030

>  <DATABASE_NAME>  (1) 
drugbank

>  <DRUGBANK_ID>  (1) 
DB01030

>  <DRUG_GROUPS>  (1) 
approved; investigational

>  <EXACT_MASS>  (1) 
421.163770861

>  <FORMULA>  (1) 
C23H23N3O5

>  <GENERIC_NAME>  (1) 
Topotecan

>  <INCHI_IDENTIFIER>  (1) 
InChI=1S/C23H23N3O5/c1-4-23(30)16-8-18-20-12(9-26(18)21(28)15(16)11-31-22(23)29)7-13-14(10-25(2)3)19(27)6-5-17(13)24-20/h5-8,27,30H,4,9-11H2,1-3H3/t23-/m0/s1

>  <INCHI_KEY>  (1) 
UCFGDBYHRUNTLO-QHCPKHFHSA-N

>  <JCHEM_ACCEPTOR_COUNT>  (1) 
6

>  <JCHEM_AVERAGE_POLARIZABILITY>  (1) 
44.85931866430069

>  <JCHEM_BIOAVAILABILITY>  (1) 
1

>  <JCHEM_DONOR_COUNT>  (1) 
2

>  <JCHEM_FORMAL_CHARGE>  (1) 
0

>  <JCHEM_GHOSE_FILTER>  (1) 
1

>  <JCHEM_IUPAC>  (1) 
(19S)-8-[(dimethylamino)methyl]-19-ethyl-7,19-dihydroxy-17-oxa-3,13-diazapentacyclo[11.8.0.0²,¹¹.0⁴,⁹.0¹⁵,²⁰]henicosa-1(21),2,4(9),5,7,10,15(20)-heptaene-14,18-dione

>  <JCHEM_LOGP>  (1) 
-0.35709507722102324

>  <JCHEM_MDDR_LIKE_RULE>  (1) 
0

>  <JCHEM_NUMBER_OF_RINGS>  (1) 
5

>  <JCHEM_PHYSIOLOGICAL_CHARGE>  (1) 
1

>  <JCHEM_PKA>  (1) 
11.71625075471723

>  <JCHEM_PKA_STRONGEST_ACIDIC>  (1) 
8.003999445526812

>  <JCHEM_PKA_STRONGEST_BASIC>  (1) 
9.826297371129254

>  <JCHEM_POLAR_SURFACE_AREA>  (1) 
103.19999999999999

>  <JCHEM_REFRACTIVITY>  (1) 
115.0161

>  <JCHEM_ROTATABLE_BOND_COUNT>  (1) 
3

>  <JCHEM_RULE_OF_FIVE>  (1) 
1

>  <JCHEM_TRADITIONAL_IUPAC>  (1) 
topotecan

>  <JCHEM_VEBER_RULE>  (1) 
0

>  <MOLECULAR_WEIGHT>  (1) 
421.4458

>  <PRODUCTS>  (1) 
Act Topotecan; Hycamtin; Mylan-topotecan Hydrochloride for Injection; PMS-topotecan; Potactasol; Topotecan; Topotecan Actavis; Topotecan Hospira; Topotecan Hydrochloride; Topotecan Hydrochloride for Injection; Topotecan Injection; Topotecan Teva; Topotecan for Injection; Topotecan hydrochloride

>  <SALTS>  (1) 
Topotecan hydrochloride

>  <SECONDARY_ACCESSION_NUMBERS>  (1) 
APRD00687

>  <SMILES>  (1) 
CC[C@@]1(O)C(=O)OCC2=C1C=C1N(CC3=CC4=C(C=CC(O)=C4CN(C)C)N=C13)C2=O

>  <SYNONYMS>  (1) 
Topotecane; Topotecanum

$$$$
