
     RDKit          2D

  9  8  0  0  0  0  0  0  0  0999 V2000
    4.2363   -0.0495    0.0000 O   0  0  0  0  0  0  0  0  0  0  0  0
    2.8074   -0.8745    0.0000 O   0  0  0  0  0  0  0  0  0  0  0  0
    3.5219    0.3630    0.0000 N   0  0  0  0  0  0  0  0  0  0  0  0
    2.0929    0.3630    0.0000 N   0  0  0  0  0  0  0  0  0  0  0  0
    2.8074   -0.0495    0.0000 C   0  0  0  0  0  0  0  0  0  0  0  0
    0.0000    0.0000    0.0000 H   0  0  0  0  0  0  0  0  0  0  0  0
    0.0000    0.0000    0.0000 H   0  0  0  0  0  0  0  0  0  0  0  0
    0.0000    0.0000    0.0000 H   0  0  0  0  0  0  0  0  0  0  0  0
    0.0000    0.0000    0.0000 H   0  0  0  0  0  0  0  0  0  0  0  0
  1  3  1  0
  2  5  2  0
  3  5  1  0
  4  5  1  0
  1  6  1  0
  3  7  1  0
  4  8  1  0
  4  9  1  0
M  END
>  <ALOGPS_LOGP>  (1) 
-1.83

>  <ALOGPS_LOGS>  (1) 
0.55

>  <ALOGPS_SOLUBILITY>  (1) 
2.69e+02 g/l

>  <DATABASE_ID>  (1) 
DB01005

>  <DATABASE_NAME>  (1) 
drugbank

>  <DRUGBANK_ID>  (1) 
DB01005

>  <DRUG_GROUPS>  (1) 
approved

>  <EXACT_MASS>  (1) 
76.027277382

>  <FORMULA>  (1) 
CH4N2O2

>  <GENERIC_NAME>  (1) 
Hydroxyurea

>  <INCHI_IDENTIFIER>  (1) 
InChI=1S/CH4N2O2/c2-1(4)3-5/h5H,(H3,2,3,4)

>  <INCHI_KEY>  (1) 
VSNHCAURESNICA-UHFFFAOYSA-N

>  <INTERNATIONAL_BRANDS>  (1) 
Litalir; Onco-Carbide

>  <JCHEM_ACCEPTOR_COUNT>  (1) 
2

>  <JCHEM_AVERAGE_POLARIZABILITY>  (1) 
5.944994473280919

>  <JCHEM_BIOAVAILABILITY>  (1) 
1

>  <JCHEM_DONOR_COUNT>  (1) 
3

>  <JCHEM_FORMAL_CHARGE>  (1) 
0

>  <JCHEM_GHOSE_FILTER>  (1) 
0

>  <JCHEM_IUPAC>  (1) 
hydroxyurea

>  <JCHEM_LOGP>  (1) 
-1.3670155889999998

>  <JCHEM_MDDR_LIKE_RULE>  (1) 
0

>  <JCHEM_NUMBER_OF_RINGS>  (1) 
0

>  <JCHEM_PHYSIOLOGICAL_CHARGE>  (1) 
0

>  <JCHEM_PKA>  (1) 
13.9604954045192

>  <JCHEM_PKA_STRONGEST_ACIDIC>  (1) 
10.140479514021132

>  <JCHEM_PKA_STRONGEST_BASIC>  (1) 
-4.909055692225128

>  <JCHEM_POLAR_SURFACE_AREA>  (1) 
75.35

>  <JCHEM_REFRACTIVITY>  (1) 
14.9072

>  <JCHEM_ROTATABLE_BOND_COUNT>  (1) 
0

>  <JCHEM_RULE_OF_FIVE>  (1) 
1

>  <JCHEM_TRADITIONAL_IUPAC>  (1) 
hydroxyurea

>  <JCHEM_VEBER_RULE>  (1) 
0

>  <MOLECULAR_WEIGHT>  (1) 
76.0547

>  <PRODUCTS>  (1) 
Apo-hydroxyurea; Droxia; Hydrea; Hydrea Cap 500mg; Hydroxyurea; Mylan-hydroxyurea; Siklos

>  <SECONDARY_ACCESSION_NUMBERS>  (1) 
APRD00023

>  <SMILES>  (1) 
NC(=O)NO

>  <SYNONYMS>  (1) 
Carbamohydroxamic Acid; Carbamohydroximic Acid; Carbamoyl Oxime; Carbamyl Hydroxamate; Hydroxycarbamide; N-Carbamoylhydroxylamine; N-Hydroxyurea

$$$$
