EQI
     RDKit          2D

 40 43  0  0  0  0  0  0  0  0999 V2000
    2.7176    0.3182    0.0000 C   0  0  0  0  0  0  0  0  0  0  0  0
    2.1857    0.9489    0.0000 C   0  0  0  0  0  0  0  0  0  0  0  0
    1.3736    0.8037    0.0000 C   0  0  0  0  0  0  0  0  0  0  0  0
    1.0933    0.0277    0.0000 C   0  0  0  0  0  0  0  0  0  0  0  0
    1.6251   -0.6030    0.0000 C   0  0  0  0  0  0  0  0  0  0  0  0
    2.4373   -0.4577    0.0000 C   0  0  0  0  0  0  0  0  0  0  0  0
    0.8418    1.4344    0.0000 C   0  0  0  0  0  0  0  0  0  0  0  0
    0.0297    1.2892    0.0000 C   0  0  0  0  0  0  0  0  0  0  0  0
   -0.2506    0.5132    0.0000 C   0  0  0  0  0  0  0  0  0  0  0  0
    0.2812   -0.1175    0.0000 C   0  0  0  0  0  0  0  0  0  0  0  0
   -1.0627    0.3680    0.0000 C   0  0  0  0  0  0  0  0  0  0  0  0
   -1.3430   -0.4079    0.0000 C   0  0  0  0  0  0  0  0  0  0  0  0
   -0.8112   -1.0386    0.0000 C   0  0  0  0  0  0  0  0  0  0  0  0
    0.0009   -0.8934    0.0000 C   0  0  0  0  0  0  0  0  0  0  0  0
   -1.7141    0.8744    0.0000 C   0  0  0  0  0  0  0  0  0  0  0  0
   -2.3969    0.4114    0.0000 C   0  0  0  0  0  0  0  0  0  0  0  0
   -2.1676   -0.3811    0.0000 C   0  0  0  0  0  0  0  0  0  0  0  0
   -1.7029   -1.1503    0.0000 C   0  0  0  0  0  0  0  0  0  0  0  0
    3.5297    0.4634    0.0000 O   0  0  0  0  0  0  0  0  0  0  0  0
   -2.6740   -1.0324    0.0000 O   0  0  0  0  0  0  0  0  0  0  0  0
    0.0000    0.0000    0.0000 H   0  0  0  0  0  0  0  0  0  0  0  0
    0.0000    0.0000    0.0000 H   0  0  0  0  0  0  0  0  0  0  0  0
    0.0000    0.0000    0.0000 H   0  0  0  0  0  0  0  0  0  0  0  0
    0.0000    0.0000    0.0000 H   0  0  0  0  0  0  0  0  0  0  0  0
    0.0000    0.0000    0.0000 H   0  0  0  0  0  0  0  0  0  0  0  0
    0.0000    0.0000    0.0000 H   0  0  0  0  0  0  0  0  0  0  0  0
    0.0000    0.0000    0.0000 H   0  0  0  0  0  0  0  0  0  0  0  0
    0.0000    0.0000    0.0000 H   0  0  0  0  0  0  0  0  0  0  0  0
    0.0000    0.0000    0.0000 H   0  0  0  0  0  0  0  0  0  0  0  0
    0.0000    0.0000    0.0000 H   0  0  0  0  0  0  0  0  0  0  0  0
    0.0000    0.0000    0.0000 H   0  0  0  0  0  0  0  0  0  0  0  0
    0.0000    0.0000    0.0000 H   0  0  0  0  0  0  0  0  0  0  0  0
    0.0000    0.0000    0.0000 H   0  0  0  0  0  0  0  0  0  0  0  0
    0.0000    0.0000    0.0000 H   0  0  0  0  0  0  0  0  0  0  0  0
    0.0000    0.0000    0.0000 H   0  0  0  0  0  0  0  0  0  0  0  0
    0.0000    0.0000    0.0000 H   0  0  0  0  0  0  0  0  0  0  0  0
    0.0000    0.0000    0.0000 H   0  0  0  0  0  0  0  0  0  0  0  0
    0.0000    0.0000    0.0000 H   0  0  0  0  0  0  0  0  0  0  0  0
    0.0000    0.0000    0.0000 H   0  0  0  0  0  0  0  0  0  0  0  0
    0.0000    0.0000    0.0000 H   0  0  0  0  0  0  0  0  0  0  0  0
  1  2  2  0
  1  6  1  0
  1 19  1  0
  2  3  1  0
  3  4  2  0
  3  7  1  0
  4  5  1  0
  4 10  1  0
  5  6  2  0
  7  8  1  0
  8  9  2  0
  9 10  1  0
  9 11  1  0
 10 14  1  0
 11 12  1  0
 11 15  1  0
 12 13  1  0
 12 17  1  0
 12 18  1  1
 13 14  1  0
 15 16  1  0
 16 17  1  0
 17 20  2  0
  2 21  1  0
  5 22  1  0
  6 23  1  0
  7 24  1  0
  7 25  1  0
  8 26  1  0
 10 27  1  6
 11 28  1  6
 13 29  1  0
 13 30  1  0
 14 31  1  0
 14 32  1  0
 15 33  1  0
 15 34  1  0
 16 35  1  0
 16 36  1  0
 18 37  1  0
 18 38  1  0
 18 39  1  0
 19 40  1  0
M  END
>  <ALOGPS_LOGP>  (1) 
3.80

>  <ALOGPS_LOGS>  (1) 
-4.30

>  <ALOGPS_SOLUBILITY>  (1) 
1.33e-02 g/l

>  <DATABASE_ID>  (1) 
DB02187

>  <DATABASE_NAME>  (1) 
drugbank

>  <DRUGBANK_ID>  (1) 
DB02187

>  <DRUG_GROUPS>  (1) 
approved

>  <EXACT_MASS>  (1) 
268.146329884

>  <FORMULA>  (1) 
C18H20O2

>  <GENERIC_NAME>  (1) 
Equilin

>  <INCHI_IDENTIFIER>  (1) 
InChI=1S/C18H20O2/c1-18-9-8-14-13-5-3-12(19)10-11(13)2-4-15(14)16(18)6-7-17(18)20/h3-5,10,14,16,19H,2,6-9H2,1H3/t14-,16+,18+/m1/s1

>  <INCHI_KEY>  (1) 
WKRLQDKEXYKHJB-HFTRVMKXSA-N

>  <JCHEM_ACCEPTOR_COUNT>  (1) 
2

>  <JCHEM_AVERAGE_POLARIZABILITY>  (1) 
30.55033785934046

>  <JCHEM_BIOAVAILABILITY>  (1) 
1

>  <JCHEM_DONOR_COUNT>  (1) 
1

>  <JCHEM_FORMAL_CHARGE>  (1) 
0

>  <JCHEM_GHOSE_FILTER>  (1) 
1

>  <JCHEM_IUPAC>  (1) 
(1S,11S,15S)-5-hydroxy-15-methyltetracyclo[8.7.0.0²,⁷.0¹¹,¹⁵]heptadeca-2(7),3,5,9-tetraen-14-one

>  <JCHEM_LOGP>  (1) 
3.9034495526666664

>  <JCHEM_MDDR_LIKE_RULE>  (1) 
0

>  <JCHEM_NUMBER_OF_RINGS>  (1) 
4

>  <JCHEM_PHYSIOLOGICAL_CHARGE>  (1) 
0

>  <JCHEM_PKA>  (1) 
19.64220714421414

>  <JCHEM_PKA_STRONGEST_ACIDIC>  (1) 
9.41416240410701

>  <JCHEM_PKA_STRONGEST_BASIC>  (1) 
-5.966658532541261

>  <JCHEM_POLAR_SURFACE_AREA>  (1) 
37.3

>  <JCHEM_REFRACTIVITY>  (1) 
79.93239999999999

>  <JCHEM_ROTATABLE_BOND_COUNT>  (1) 
0

>  <JCHEM_RULE_OF_FIVE>  (1) 
1

>  <JCHEM_TRADITIONAL_IUPAC>  (1) 
equilin

>  <JCHEM_VEBER_RULE>  (1) 
1

>  <MOLECULAR_WEIGHT>  (1) 
268.3502

>  <SECONDARY_ACCESSION_NUMBERS>  (1) 
EXPT01355

>  <SMILES>  (1) 
[H][C@@]12CCC(=O)[C@@]1(C)CC[C@]1([H])C3=C(CC=C21)C=C(O)C=C3

>  <SYNONYMS>  (1) 
1,3,5,7-Estratetraen-3-ol-17-one; 7-Dehydroestrone; Dihydroequilenin

$$$$
