CHD
     RDKit          2D

 69 72  0  0  0  0  0  0  0  0999 V2000
    2.3153   -0.2050    0.0000 C   0  0  0  0  0  0  0  0  0  0  0  0
    3.1274   -0.0597    0.0000 C   0  0  0  0  0  0  0  0  0  0  0  0
    3.4077    0.7162    0.0000 C   0  0  0  0  0  0  0  0  0  0  0  0
    4.2198    0.8614    0.0000 O   0  0  0  0  0  0  0  0  0  0  0  0
    2.8759    1.3469    0.0000 C   0  0  0  0  0  0  0  0  0  0  0  0
    2.0637    1.2017    0.0000 C   0  0  0  0  0  0  0  0  0  0  0  0
    1.5319    1.8324    0.0000 C   0  0  0  0  0  0  0  0  0  0  0  0
    0.7198    1.6872    0.0000 C   0  0  0  0  0  0  0  0  0  0  0  0
    0.1880    2.3179    0.0000 O   0  0  0  0  0  0  0  0  0  0  0  0
    0.4395    0.9112    0.0000 C   0  0  0  0  0  0  0  0  0  0  0  0
    0.9713    0.2805    0.0000 C   0  0  0  0  0  0  0  0  0  0  0  0
    1.7834    0.4257    0.0000 C   0  0  0  0  0  0  0  0  0  0  0  0
    0.6910   -0.4954    0.0000 C   0  0  0  0  0  0  0  0  0  0  0  0
   -0.1211   -0.6406    0.0000 C   0  0  0  0  0  0  0  0  0  0  0  0
   -0.4014   -1.4165    0.0000 O   0  0  0  0  0  0  0  0  0  0  0  0
   -0.6529   -0.0099    0.0000 C   0  0  0  0  0  0  0  0  0  0  0  0
   -0.3726    0.7660    0.0000 C   0  0  0  0  0  0  0  0  0  0  0  0
   -1.0239    1.2724    0.0000 C   0  0  0  0  0  0  0  0  0  0  0  0
   -1.7068    0.8094    0.0000 C   0  0  0  0  0  0  0  0  0  0  0  0
   -1.4775    0.0169    0.0000 C   0  0  0  0  0  0  0  0  0  0  0  0
   -1.0128   -0.7523    0.0000 C   0  0  0  0  0  0  0  0  0  0  0  0
    1.5031   -0.3502    0.0000 C   0  0  0  0  0  0  0  0  0  0  0  0
   -1.9838   -0.6344    0.0000 C   0  0  0  0  0  0  0  0  0  0  0  0
   -1.6729   -1.3986    0.0000 C   0  0  0  0  0  0  0  0  0  0  0  0
   -2.8011   -0.5216    0.0000 C   0  0  0  0  0  0  0  0  0  0  0  0
   -3.3074   -1.1729    0.0000 C   0  0  0  0  0  0  0  0  0  0  0  0
   -4.6310   -1.7114    0.0000 O   0  0  0  0  0  0  0  0  0  0  0  0
   -4.1247   -1.0601    0.0000 C   0  0  0  0  0  0  0  0  0  0  0  0
   -4.4356   -0.2959    0.0000 O   0  0  0  0  0  0  0  0  0  0  0  0
    0.0000    0.0000    0.0000 H   0  0  0  0  0  0  0  0  0  0  0  0
    0.0000    0.0000    0.0000 H   0  0  0  0  0  0  0  0  0  0  0  0
    0.0000    0.0000    0.0000 H   0  0  0  0  0  0  0  0  0  0  0  0
    0.0000    0.0000    0.0000 H   0  0  0  0  0  0  0  0  0  0  0  0
    0.0000    0.0000    0.0000 H   0  0  0  0  0  0  0  0  0  0  0  0
    0.0000    0.0000    0.0000 H   0  0  0  0  0  0  0  0  0  0  0  0
    0.0000    0.0000    0.0000 H   0  0  0  0  0  0  0  0  0  0  0  0
    0.0000    0.0000    0.0000 H   0  0  0  0  0  0  0  0  0  0  0  0
    0.0000    0.0000    0.0000 H   0  0  0  0  0  0  0  0  0  0  0  0
    0.0000    0.0000    0.0000 H   0  0  0  0  0  0  0  0  0  0  0  0
    0.0000    0.0000    0.0000 H   0  0  0  0  0  0  0  0  0  0  0  0
    0.0000    0.0000    0.0000 H   0  0  0  0  0  0  0  0  0  0  0  0
    0.0000    0.0000    0.0000 H   0  0  0  0  0  0  0  0  0  0  0  0
    0.0000    0.0000    0.0000 H   0  0  0  0  0  0  0  0  0  0  0  0
    0.0000    0.0000    0.0000 H   0  0  0  0  0  0  0  0  0  0  0  0
    0.0000    0.0000    0.0000 H   0  0  0  0  0  0  0  0  0  0  0  0
    0.0000    0.0000    0.0000 H   0  0  0  0  0  0  0  0  0  0  0  0
    0.0000    0.0000    0.0000 H   0  0  0  0  0  0  0  0  0  0  0  0
    0.0000    0.0000    0.0000 H   0  0  0  0  0  0  0  0  0  0  0  0
    0.0000    0.0000    0.0000 H   0  0  0  0  0  0  0  0  0  0  0  0
    0.0000    0.0000    0.0000 H   0  0  0  0  0  0  0  0  0  0  0  0
    0.0000    0.0000    0.0000 H   0  0  0  0  0  0  0  0  0  0  0  0
    0.0000    0.0000    0.0000 H   0  0  0  0  0  0  0  0  0  0  0  0
    0.0000    0.0000    0.0000 H   0  0  0  0  0  0  0  0  0  0  0  0
    0.0000    0.0000    0.0000 H   0  0  0  0  0  0  0  0  0  0  0  0
    0.0000    0.0000    0.0000 H   0  0  0  0  0  0  0  0  0  0  0  0
    0.0000    0.0000    0.0000 H   0  0  0  0  0  0  0  0  0  0  0  0
    0.0000    0.0000    0.0000 H   0  0  0  0  0  0  0  0  0  0  0  0
    0.0000    0.0000    0.0000 H   0  0  0  0  0  0  0  0  0  0  0  0
    0.0000    0.0000    0.0000 H   0  0  0  0  0  0  0  0  0  0  0  0
    0.0000    0.0000    0.0000 H   0  0  0  0  0  0  0  0  0  0  0  0
    0.0000    0.0000    0.0000 H   0  0  0  0  0  0  0  0  0  0  0  0
    0.0000    0.0000    0.0000 H   0  0  0  0  0  0  0  0  0  0  0  0
    0.0000    0.0000    0.0000 H   0  0  0  0  0  0  0  0  0  0  0  0
    0.0000    0.0000    0.0000 H   0  0  0  0  0  0  0  0  0  0  0  0
    0.0000    0.0000    0.0000 H   0  0  0  0  0  0  0  0  0  0  0  0
    0.0000    0.0000    0.0000 H   0  0  0  0  0  0  0  0  0  0  0  0
    0.0000    0.0000    0.0000 H   0  0  0  0  0  0  0  0  0  0  0  0
    0.0000    0.0000    0.0000 H   0  0  0  0  0  0  0  0  0  0  0  0
    0.0000    0.0000    0.0000 H   0  0  0  0  0  0  0  0  0  0  0  0
  1  2  1  0
  1 12  1  0
  2  3  1  0
  3  4  1  1
  3  5  1  0
  5  6  1  0
  6  7  1  0
  6 12  1  0
  7  8  1  0
  8  9  1  6
  8 10  1  0
 10 11  1  0
 10 17  1  0
 11 12  1  0
 11 13  1  0
 12 22  1  1
 13 14  1  0
 14 15  1  1
 14 16  1  0
 16 17  1  0
 16 20  1  0
 16 21  1  1
 17 18  1  0
 18 19  1  0
 19 20  1  0
 20 23  1  0
 23 24  1  6
 23 25  1  0
 25 26  1  0
 26 28  1  0
 27 28  2  0
 28 29  1  0
  1 30  1  0
  1 31  1  0
  2 32  1  0
  2 33  1  0
  3 34  1  0
  4 35  1  0
  5 36  1  0
  5 37  1  0
  6 38  1  1
  7 39  1  0
  7 40  1  0
  8 41  1  0
  9 42  1  0
 10 43  1  1
 11 44  1  6
 13 45  1  0
 13 46  1  0
 14 47  1  0
 15 48  1  0
 17 49  1  6
 18 50  1  0
 18 51  1  0
 19 52  1  0
 19 53  1  0
 20 54  1  6
 21 55  1  0
 21 56  1  0
 21 57  1  0
 22 58  1  0
 22 59  1  0
 22 60  1  0
 23 61  1  0
 24 62  1  0
 24 63  1  0
 24 64  1  0
 25 65  1  0
 25 66  1  0
 26 67  1  0
 26 68  1  0
 29 69  1  0
M  END
>  <ALOGPS_LOGP>  (1) 
2.26

>  <ALOGPS_LOGS>  (1) 
-3.74

>  <ALOGPS_SOLUBILITY>  (1) 
7.38e-02 g/l

>  <DATABASE_ID>  (1) 
DB02659

>  <DATABASE_NAME>  (1) 
drugbank

>  <DRUGBANK_ID>  (1) 
DB02659

>  <DRUG_GROUPS>  (1) 
approved

>  <EXACT_MASS>  (1) 
408.28757439

>  <FORMULA>  (1) 
C24H40O5

>  <GENERIC_NAME>  (1) 
Cholic Acid

>  <INCHI_IDENTIFIER>  (1) 
InChI=1S/C24H40O5/c1-13(4-7-21(28)29)16-5-6-17-22-18(12-20(27)24(16,17)3)23(2)9-8-15(25)10-14(23)11-19(22)26/h13-20,22,25-27H,4-12H2,1-3H3,(H,28,29)/t13-,14+,15-,16-,17+,18+,19-,20+,22+,23+,24-/m1/s1

>  <INCHI_KEY>  (1) 
BHQCQFFYRZLCQQ-OELDTZBJSA-N

>  <JCHEM_ACCEPTOR_COUNT>  (1) 
5

>  <JCHEM_AVERAGE_POLARIZABILITY>  (1) 
46.926131950911326

>  <JCHEM_BIOAVAILABILITY>  (1) 
1

>  <JCHEM_DONOR_COUNT>  (1) 
4

>  <JCHEM_FORMAL_CHARGE>  (1) 
0

>  <JCHEM_GHOSE_FILTER>  (1) 
1

>  <JCHEM_IUPAC>  (1) 
(4R)-4-[(1S,2S,5R,7S,9R,10R,11S,14R,15R,16S)-5,9,16-trihydroxy-2,15-dimethyltetracyclo[8.7.0.0²,⁷.0¹¹,¹⁵]heptadecan-14-yl]pentanoic acid

>  <JCHEM_LOGP>  (1) 
2.482494456666666

>  <JCHEM_MDDR_LIKE_RULE>  (1) 
0

>  <JCHEM_NUMBER_OF_RINGS>  (1) 
4

>  <JCHEM_PHYSIOLOGICAL_CHARGE>  (1) 
-1

>  <JCHEM_PKA>  (1) 
18.2963399055959

>  <JCHEM_PKA_STRONGEST_ACIDIC>  (1) 
4.475012423758966

>  <JCHEM_PKA_STRONGEST_BASIC>  (1) 
-0.15944265438213734

>  <JCHEM_POLAR_SURFACE_AREA>  (1) 
97.99

>  <JCHEM_REFRACTIVITY>  (1) 
110.78929999999997

>  <JCHEM_ROTATABLE_BOND_COUNT>  (1) 
4

>  <JCHEM_RULE_OF_FIVE>  (1) 
1

>  <JCHEM_TRADITIONAL_IUPAC>  (1) 
cholic acid

>  <JCHEM_VEBER_RULE>  (1) 
0

>  <MOLECULAR_WEIGHT>  (1) 
408.5714

>  <PRODUCTS>  (1) 
Cholbam; Kolbam; Orphacol

>  <SECONDARY_ACCESSION_NUMBERS>  (1) 
EXPT00906

>  <SMILES>  (1) 
[H][C@@](C)(CCC(O)=O)[C@@]1([H])CC[C@@]2([H])[C@]3([H])[C@]([H])(O)C[C@]4([H])C[C@]([H])(O)CC[C@]4(C)[C@@]3([H])C[C@]([H])(O)[C@]12C

$$$$
