
     RDKit          2D

  8  7  0  0  0  0  0  0  0  0999 V2000
    1.2375    0.7145    0.0000 N   0  0  0  0  0  0  0  0  0  0  0  0
    0.8250    0.0000    0.0000 C   0  0  0  0  0  0  0  0  0  0  0  0
    1.2375   -0.7145    0.0000 N   0  0  0  0  0  0  0  0  0  0  0  0
    0.0000    0.0000    0.0000 O   0  0  0  0  0  0  0  0  0  0  0  0
    0.0000    0.0000    0.0000 H   0  0  0  0  0  0  0  0  0  0  0  0
    0.0000    0.0000    0.0000 H   0  0  0  0  0  0  0  0  0  0  0  0
    0.0000    0.0000    0.0000 H   0  0  0  0  0  0  0  0  0  0  0  0
    0.0000    0.0000    0.0000 H   0  0  0  0  0  0  0  0  0  0  0  0
  1  2  1  0
  2  3  1  0
  2  4  2  0
  1  5  1  0
  1  6  1  0
  3  7  1  0
  3  8  1  0
M  END
>  <ALOGPS_LOGP>  (1) 
-1.78

>  <ALOGPS_LOGS>  (1) 
0.84

>  <ALOGPS_SOLUBILITY>  (1) 
4.12e+02 g/l

>  <DATABASE_ID>  (1) 
DB03904

>  <DATABASE_NAME>  (1) 
drugbank

>  <DRUGBANK_ID>  (1) 
DB03904

>  <DRUG_GROUPS>  (1) 
approved

>  <EXACT_MASS>  (1) 
60.03236276

>  <FORMULA>  (1) 
CH4N2O

>  <GENERIC_NAME>  (1) 
Urea

>  <INCHI_IDENTIFIER>  (1) 
InChI=1S/CH4N2O/c2-1(3)4/h(H4,2,3,4)

>  <INCHI_KEY>  (1) 
XSQUKJJJFZCRTK-UHFFFAOYSA-N

>  <JCHEM_ACCEPTOR_COUNT>  (1) 
1

>  <JCHEM_AVERAGE_POLARIZABILITY>  (1) 
5.10288140907885

>  <JCHEM_BIOAVAILABILITY>  (1) 
1

>  <JCHEM_DONOR_COUNT>  (1) 
2

>  <JCHEM_FORMAL_CHARGE>  (1) 
0

>  <JCHEM_GHOSE_FILTER>  (1) 
0

>  <JCHEM_IUPAC>  (1) 
urea

>  <JCHEM_LOGP>  (1) 
-1.3638338616666665

>  <JCHEM_MDDR_LIKE_RULE>  (1) 
0

>  <JCHEM_NUMBER_OF_RINGS>  (1) 
0

>  <JCHEM_PHYSIOLOGICAL_CHARGE>  (1) 
0

>  <JCHEM_PKA_STRONGEST_ACIDIC>  (1) 
15.731965106806726

>  <JCHEM_PKA_STRONGEST_BASIC>  (1) 
-2.3686972237578967

>  <JCHEM_POLAR_SURFACE_AREA>  (1) 
69.11

>  <JCHEM_REFRACTIVITY>  (1) 
13.1426

>  <JCHEM_ROTATABLE_BOND_COUNT>  (1) 
0

>  <JCHEM_RULE_OF_FIVE>  (1) 
1

>  <JCHEM_TRADITIONAL_IUPAC>  (1) 
urea

>  <JCHEM_VEBER_RULE>  (1) 
0

>  <MOLECULAR_WEIGHT>  (1) 
60.0553

>  <PRODUCTS>  (1) 
Aluvea; CEM-Urea; Calmurid Crm; Calmurid HC Crm; Carb-O-Philic; Carbamex 330mgms; Dr. Scholl's Cracked Heel Relief Cream; Flexitol Heel Balm; Gehwol FUSSKRAFT Callus Softener; Gehwol med Callus; Gehwol med Lipidro; Gordons Urea 40; Heel Balm; Hydro 35; Hydrophil Ont; Keralac; Kerasal Topical Solution; Pedipak; Psoricare Crm 3%; Rea Lo 39; Rea Lo 40; Remeven; Rynoderm; Sultrin Triple Sulfa Crm; Thomas Formula No 17; Thomas Formula No 47; Ti-U-lac HC Lotion; Ti-U-lac Lotion; Umecta Mousse Urea; Umecta PD Urea; Umecta Urea; Uramaxin; Uramaxin GT; Uramaxin Pads; Uramaxin TS; Ure-K; Urea; Urea 47% Cream; Urea Hydrating Topical; Urea Nail; Urederm Cream 10%; Uremol 10 Crm 10%; Uremol 10 Lotion 10%; Uremol HC; Urevaz; Utopic; Velvelan Crm 10%; Velvelan Lot 10%; X-Viate; YouGreen F

>  <SECONDARY_ACCESSION_NUMBERS>  (1) 
EXPT03203

>  <SMILES>  (1) 
NC(N)=O

$$$$
