(3a,5b,12a)-3,12-dihydroxy-Cholan-24-oic acid.mol
     RDKit          2D

 68 71  0  0  0  0  0  0  0  0999 V2000
   -2.4539   -2.3339    0.0000 C   0  0  0  0  0  0  0  0  0  0  0  0
   -2.4539   -1.5089    0.0000 C   0  0  0  0  0  0  0  0  0  0  0  0
   -1.7395   -1.0964    0.0000 C   0  0  0  0  0  0  0  0  0  0  0  0
   -1.7395   -2.7464    0.0000 C   0  0  0  0  0  0  0  0  0  0  0  0
   -1.0250   -2.3339    0.0000 C   0  0  0  0  0  0  0  0  0  0  0  0
   -0.3105   -2.7464    0.0000 C   0  0  0  0  0  0  0  0  0  0  0  0
    0.4040   -2.3339    0.0000 C   0  0  0  0  0  0  0  0  0  0  0  0
    0.4040   -1.5089    0.0000 C   0  0  0  0  0  0  0  0  0  0  0  0
    1.1184   -1.0964    0.0000 C   0  0  0  0  0  0  0  0  0  0  0  0
    1.9030   -1.3513    0.0000 C   0  0  0  0  0  0  0  0  0  0  0  0
    2.3880   -0.6839    0.0000 C   0  0  0  0  0  0  0  0  0  0  0  0
    1.9030   -0.0164    0.0000 C   0  0  0  0  0  0  0  0  0  0  0  0
    2.1580    0.7682    0.0000 C   0  0  0  0  0  0  0  0  0  0  0  0
    1.5746    1.3516    0.0000 C   0  0  0  0  0  0  0  0  0  0  0  0
    1.7881    2.1484    0.0000 C   0  0  0  0  0  0  0  0  0  0  0  0
    2.5850    2.3620    0.0000 C   0  0  0  0  0  0  0  0  0  0  0  0
    2.9650    0.9397    0.0000 C   0  0  0  0  0  0  0  0  0  0  0  0
    1.1184   -0.2714    0.0000 C   0  0  0  0  0  0  0  0  0  0  0  0
    1.1184    0.5536    0.0000 C   0  0  0  0  0  0  0  0  0  0  0  0
    0.4040    0.1411    0.0000 C   0  0  0  0  0  0  0  0  0  0  0  0
   -0.3105   -0.2714    0.0000 C   0  0  0  0  0  0  0  0  0  0  0  0
   -0.3105   -1.0964    0.0000 C   0  0  0  0  0  0  0  0  0  0  0  0
   -1.0250   -1.5089    0.0000 C   0  0  0  0  0  0  0  0  0  0  0  0
   -1.0250   -0.6839    0.0000 C   0  0  0  0  0  0  0  0  0  0  0  0
    2.7986    3.1589    0.0000 O   0  0  0  0  0  0  0  0  0  0  0  0
    3.1684    1.7786    0.0000 O   0  0  0  0  0  0  0  0  0  0  0  0
    0.4040    0.9661    0.0000 O   0  0  0  0  0  0  0  0  0  0  0  0
   -3.1684   -2.7464    0.0000 O   0  0  0  0  0  0  0  0  0  0  0  0
    0.0000    0.0000    0.0000 H   0  0  0  0  0  0  0  0  0  0  0  0
    0.0000    0.0000    0.0000 H   0  0  0  0  0  0  0  0  0  0  0  0
    0.0000    0.0000    0.0000 H   0  0  0  0  0  0  0  0  0  0  0  0
    0.0000    0.0000    0.0000 H   0  0  0  0  0  0  0  0  0  0  0  0
    0.0000    0.0000    0.0000 H   0  0  0  0  0  0  0  0  0  0  0  0
    0.0000    0.0000    0.0000 H   0  0  0  0  0  0  0  0  0  0  0  0
    0.0000    0.0000    0.0000 H   0  0  0  0  0  0  0  0  0  0  0  0
    0.0000    0.0000    0.0000 H   0  0  0  0  0  0  0  0  0  0  0  0
    0.0000    0.0000    0.0000 H   0  0  0  0  0  0  0  0  0  0  0  0
    0.0000    0.0000    0.0000 H   0  0  0  0  0  0  0  0  0  0  0  0
    0.0000    0.0000    0.0000 H   0  0  0  0  0  0  0  0  0  0  0  0
    0.0000    0.0000    0.0000 H   0  0  0  0  0  0  0  0  0  0  0  0
    0.0000    0.0000    0.0000 H   0  0  0  0  0  0  0  0  0  0  0  0
    0.0000    0.0000    0.0000 H   0  0  0  0  0  0  0  0  0  0  0  0
    0.0000    0.0000    0.0000 H   0  0  0  0  0  0  0  0  0  0  0  0
    0.0000    0.0000    0.0000 H   0  0  0  0  0  0  0  0  0  0  0  0
    0.0000    0.0000    0.0000 H   0  0  0  0  0  0  0  0  0  0  0  0
    0.0000    0.0000    0.0000 H   0  0  0  0  0  0  0  0  0  0  0  0
    0.0000    0.0000    0.0000 H   0  0  0  0  0  0  0  0  0  0  0  0
    0.0000    0.0000    0.0000 H   0  0  0  0  0  0  0  0  0  0  0  0
    0.0000    0.0000    0.0000 H   0  0  0  0  0  0  0  0  0  0  0  0
    0.0000    0.0000    0.0000 H   0  0  0  0  0  0  0  0  0  0  0  0
    0.0000    0.0000    0.0000 H   0  0  0  0  0  0  0  0  0  0  0  0
    0.0000    0.0000    0.0000 H   0  0  0  0  0  0  0  0  0  0  0  0
    0.0000    0.0000    0.0000 H   0  0  0  0  0  0  0  0  0  0  0  0
    0.0000    0.0000    0.0000 H   0  0  0  0  0  0  0  0  0  0  0  0
    0.0000    0.0000    0.0000 H   0  0  0  0  0  0  0  0  0  0  0  0
    0.0000    0.0000    0.0000 H   0  0  0  0  0  0  0  0  0  0  0  0
    0.0000    0.0000    0.0000 H   0  0  0  0  0  0  0  0  0  0  0  0
    0.0000    0.0000    0.0000 H   0  0  0  0  0  0  0  0  0  0  0  0
    0.0000    0.0000    0.0000 H   0  0  0  0  0  0  0  0  0  0  0  0
    0.0000    0.0000    0.0000 H   0  0  0  0  0  0  0  0  0  0  0  0
    0.0000    0.0000    0.0000 H   0  0  0  0  0  0  0  0  0  0  0  0
    0.0000    0.0000    0.0000 H   0  0  0  0  0  0  0  0  0  0  0  0
    0.0000    0.0000    0.0000 H   0  0  0  0  0  0  0  0  0  0  0  0
    0.0000    0.0000    0.0000 H   0  0  0  0  0  0  0  0  0  0  0  0
    0.0000    0.0000    0.0000 H   0  0  0  0  0  0  0  0  0  0  0  0
    0.0000    0.0000    0.0000 H   0  0  0  0  0  0  0  0  0  0  0  0
    0.0000    0.0000    0.0000 H   0  0  0  0  0  0  0  0  0  0  0  0
    0.0000    0.0000    0.0000 H   0  0  0  0  0  0  0  0  0  0  0  0
  1  2  1  0
  2  3  1  0
  1  4  1  0
  4  5  1  0
  5  6  1  0
  6  7  1  0
  7  8  1  0
  8  9  1  0
  9 10  1  0
 10 11  1  0
 12 11  1  0
 12 13  1  0
 13 14  1  1
 14 15  1  0
 15 16  1  0
 13 17  1  0
 12 18  1  0
  9 18  1  0
 18 19  1  1
 18 20  1  0
 20 21  1  0
 21 22  1  0
  8 22  1  0
 22 23  1  0
  3 23  1  0
  5 23  1  0
 23 24  1  1
 16 25  2  0
 16 26  1  0
 20 27  1  6
  1 28  1  1
  1 29  1  0
  2 30  1  0
  2 31  1  0
  3 32  1  0
  3 33  1  0
  4 34  1  0
  4 35  1  0
  5 36  1  1
  6 37  1  0
  6 38  1  0
  7 39  1  0
  7 40  1  0
  8 41  1  1
  9 42  1  6
 10 43  1  0
 10 44  1  0
 11 45  1  0
 11 46  1  0
 12 47  1  6
 13 48  1  0
 14 49  1  0
 14 50  1  0
 15 51  1  0
 15 52  1  0
 17 53  1  0
 17 54  1  0
 17 55  1  0
 19 56  1  0
 19 57  1  0
 19 58  1  0
 20 59  1  0
 21 60  1  0
 21 61  1  0
 22 62  1  6
 24 63  1  0
 24 64  1  0
 24 65  1  0
 26 66  1  0
 27 67  1  0
 28 68  1  0
M  END
>  <ALOGPS_LOGP>  (1) 
3.30

>  <ALOGPS_LOGS>  (1) 
-4.35

>  <ALOGPS_SOLUBILITY>  (1) 
1.73e-02 g/l

>  <DATABASE_ID>  (1) 
DB03619

>  <DATABASE_NAME>  (1) 
drugbank

>  <DRUGBANK_ID>  (1) 
DB03619

>  <DRUG_GROUPS>  (1) 
approved

>  <EXACT_MASS>  (1) 
392.292659768

>  <FORMULA>  (1) 
C24H40O4

>  <GENERIC_NAME>  (1) 
Deoxycholic Acid

>  <INCHI_IDENTIFIER>  (1) 
InChI=1S/C24H40O4/c1-14(4-9-22(27)28)18-7-8-19-17-6-5-15-12-16(25)10-11-23(15,2)20(17)13-21(26)24(18,19)3/h14-21,25-26H,4-13H2,1-3H3,(H,27,28)/t14-,15-,16-,17+,18-,19+,20+,21+,23+,24-/m1/s1

>  <INCHI_KEY>  (1) 
KXGVEGMKQFWNSR-LLQZFEROSA-N

>  <JCHEM_ACCEPTOR_COUNT>  (1) 
4

>  <JCHEM_AVERAGE_POLARIZABILITY>  (1) 
46.166475299269024

>  <JCHEM_BIOAVAILABILITY>  (1) 
1

>  <JCHEM_DONOR_COUNT>  (1) 
3

>  <JCHEM_FORMAL_CHARGE>  (1) 
0

>  <JCHEM_GHOSE_FILTER>  (1) 
1

>  <JCHEM_IUPAC>  (1) 
(4R)-4-[(1S,2S,5R,7R,10R,11S,14R,15R,16S)-5,16-dihydroxy-2,15-dimethyltetracyclo[8.7.0.0²,⁷.0¹¹,¹⁵]heptadecan-14-yl]pentanoic acid

>  <JCHEM_LOGP>  (1) 
3.7912592536666683

>  <JCHEM_MDDR_LIKE_RULE>  (1) 
0

>  <JCHEM_NUMBER_OF_RINGS>  (1) 
4

>  <JCHEM_PHYSIOLOGICAL_CHARGE>  (1) 
-1

>  <JCHEM_PKA>  (1) 
18.296396318179

>  <JCHEM_PKA_STRONGEST_ACIDIC>  (1) 
4.651656794864149

>  <JCHEM_PKA_STRONGEST_BASIC>  (1) 
-0.3511899140388809

>  <JCHEM_POLAR_SURFACE_AREA>  (1) 
77.76

>  <JCHEM_REFRACTIVITY>  (1) 
109.19679999999998

>  <JCHEM_ROTATABLE_BOND_COUNT>  (1) 
4

>  <JCHEM_RULE_OF_FIVE>  (1) 
1

>  <JCHEM_TRADITIONAL_IUPAC>  (1) 
deoxycholic acid

>  <JCHEM_VEBER_RULE>  (1) 
0

>  <MOLECULAR_WEIGHT>  (1) 
392.572

>  <PRODUCTS>  (1) 
Belkyra; Debiline; Debiline H; Kybella

>  <SECONDARY_ACCESSION_NUMBERS>  (1) 
EXPT01194; DB07690

>  <SMILES>  (1) 
[H][C@@]12CC[C@H]([C@H](C)CCC(O)=O)[C@@]1(C)[C@@H](O)C[C@@]1([H])[C@@]2([H])CC[C@]2([H])C[C@H](O)CC[C@]12C

>  <SYNONYMS>  (1) 
(3α,5β,12α)-3,12-dihydroxycholan-24-oic acid; 3alpha,12alpha-Dihydroxy-5beta-cholanic acid; 7α-deoxycholic acid; deoxycholate; desoxycholic acid; Desoxycholsäure

$$$$
