
     RDKit          2D

183194  0  0  1  0  0  0  0  0999 V2000
   -2.1071    0.1268    0.0000 C   0  0  0  0  0  0  0  0  0  0  0  0
   -1.3344   -0.1621    0.0000 C   0  0  0  0  0  0  0  0  0  0  0  0
   -0.4691    0.2621    0.0000 C   0  0  0  0  0  0  0  0  0  0  0  0
    0.4424    0.4908    0.0000 C   0  0  0  0  0  0  0  0  0  0  0  0
    0.6686    1.2842    0.0000 N   0  0  0  0  0  0  0  0  0  0  0  0
    1.2551    0.3488    0.0000 O   0  0  0  0  0  0  0  0  0  0  0  0
   -1.3704   -0.9863    0.0000 C   0  0  0  0  0  0  0  0  0  0  0  0
   -1.3333   -1.8754    0.0000 C   0  0  0  0  0  0  0  0  0  0  0  0
   -0.7248   -1.5000    0.0000 C   0  0  0  0  0  0  0  0  0  0  0  0
    0.0428   -1.1976    0.0000 C   0  0  0  0  0  0  0  0  0  0  0  0
    0.6884   -1.7112    0.0000 C   0  0  0  0  0  0  0  0  0  0  0  0
    0.5838   -2.5699    0.0000 O   0  0  0  0  0  0  0  0  0  0  0  0
    1.4560   -1.4089    0.0000 N   0  0  0  0  0  0  0  0  0  0  0  0
    2.1017   -1.9225    0.0000 C   0  0  0  0  0  0  0  0  0  0  0  0
    2.8693   -1.6202    0.0000 C   0  0  0  0  0  0  0  0  0  0  0  0
    2.6471   -2.4528    0.0000 C   0  0  0  0  0  0  0  0  0  0  0  0
    3.5149   -2.1338    0.0000 O   0  0  0  0  0  0  0  0  0  0  0  0
    4.2825   -1.8314    0.0000 P   0  0  0  0  0  0  0  0  0  0  0  0
    4.1256   -2.6914    0.0000 O   0  0  0  0  0  0  0  0  0  0  0  0
    4.6352   -2.6316    0.0000 O   0  0  0  0  0  0  0  0  0  0  0  0
    4.9282   -2.3450    0.0000 O   0  0  0  0  0  0  0  0  0  0  0  0
    5.6958   -2.0427    0.0000 C   0  0  0  0  0  0  0  0  0  0  0  0
    5.9024   -1.2440    0.0000 C   0  0  0  0  0  0  0  0  0  0  0  0
    5.3438   -0.5911    0.0000 O   0  0  0  0  0  0  0  0  0  0  0  0
    6.7258   -1.1937    0.0000 C   0  0  0  0  0  0  0  0  0  0  0  0
    7.0282   -1.9613    0.0000 O   0  0  0  0  0  0  0  0  0  0  0  0
    6.3915   -2.4860    0.0000 C   0  0  0  0  0  0  0  0  0  0  0  0
    6.5251   -3.3682    0.0000 C   0  0  0  0  0  0  0  0  0  0  0  0
    7.2392   -3.8444    0.0000 O   0  0  0  0  0  0  0  0  0  0  0  0
    7.1691   -0.4979    0.0000 N   0  0  0  0  0  0  0  0  0  0  0  0
    6.8668    0.2697    0.0000 C   0  0  0  0  0  0  0  0  0  0  0  0
    7.5034    0.7944    0.0000 N   0  0  0  0  0  0  0  0  0  0  0  0
    8.1992    0.3511    0.0000 C   0  0  0  0  0  0  0  0  0  0  0  0
    8.9942    0.5716    0.0000 C   0  0  0  0  0  0  0  0  0  0  0  0
    9.5826   -0.0067    0.0000 C   0  0  0  0  0  0  0  0  0  0  0  0
   10.4100    0.2069    0.0000 C   0  0  0  0  0  0  0  0  0  0  0  0
    9.3760   -0.8054    0.0000 C   0  0  0  0  0  0  0  0  0  0  0  0
    9.9997   -1.4024    0.0000 C   0  0  0  0  0  0  0  0  0  0  0  0
    8.5810   -1.0258    0.0000 C   0  0  0  0  0  0  0  0  0  0  0  0
    7.9926   -0.4476    0.0000 C   0  0  0  0  0  0  0  0  0  0  0  0
   -1.6042   -0.2738    0.0000 Co  0  0  0  0  0  0  0  0  0  0  0  0
   -1.3080    0.6061    0.0000 C   0  0  0  0  0  0  0  0  0  0  0  0
   -2.6207   -0.5188    0.0000 N   0  0  0  0  0  0  0  0  0  0  0  0
   -2.1654   -1.2068    0.0000 C   0  0  0  0  0  0  0  0  0  0  0  0
   -2.6912   -2.1312    0.0000 C   0  0  0  0  0  0  0  0  0  0  0  0
   -2.2779   -2.9295    0.0000 C   0  0  0  0  0  0  0  0  0  0  0  0
   -3.4230   -2.5121    0.0000 C   0  0  0  0  0  0  0  0  0  0  0  0
   -4.0114   -1.9338    0.0000 N   0  0  0  0  0  0  0  0  0  0  0  0
   -4.7432   -2.3148    0.0000 C   0  0  0  0  0  0  0  0  0  0  0  0
   -5.6076   -1.6952    0.0000 C   0  0  0  0  0  0  0  0  0  0  0  0
   -5.9100   -0.9276    0.0000 C   0  0  0  0  0  0  0  0  0  0  0  0
   -5.2733   -0.4029    0.0000 N   0  0  0  0  0  0  0  0  0  0  0  0
   -5.5757    0.3647    0.0000 C   0  0  0  0  0  0  0  0  0  0  0  0
   -4.8692    1.1596    0.0000 C   0  0  0  0  0  0  0  0  0  0  0  0
   -5.2096    1.9228    0.0000 C   0  0  0  0  0  0  0  0  0  0  0  0
   -4.0742    1.3801    0.0000 C   0  0  0  0  0  0  0  0  0  0  0  0
   -3.6189    0.6921    0.0000 N   0  0  0  0  0  0  0  0  0  0  0  0
   -2.8238    0.9125    0.0000 C   0  0  0  0  0  0  0  0  0  0  0  0
   -2.2290    1.4405    0.0000 C   0  0  0  0  0  0  0  0  0  0  0  0
   -2.7878    1.7368    0.0000 C   0  0  0  0  0  0  0  0  0  0  0  0
   -1.9567    2.2051    0.0000 C   0  0  0  0  0  0  0  0  0  0  0  0
   -2.4754    2.6225    0.0000 C   0  0  0  0  0  0  0  0  0  0  0  0
   -1.8197    3.3110    0.0000 C   0  0  0  0  0  0  0  0  0  0  0  0
   -2.0526    4.1024    0.0000 N   0  0  0  0  0  0  0  0  0  0  0  0
   -1.0179    3.1169    0.0000 O   0  0  0  0  0  0  0  0  0  0  0  0
   -3.5606    2.0257    0.0000 C   0  0  0  0  0  0  0  0  0  0  0  0
   -3.9320    2.8384    0.0000 C   0  0  0  0  0  0  0  0  0  0  0  0
   -4.6451    3.2808    0.0000 C   0  0  0  0  0  0  0  0  0  0  0  0
   -4.6190    4.1054    0.0000 C   0  0  0  0  0  0  0  0  0  0  0  0
   -3.8919    4.4951    0.0000 N   0  0  0  0  0  0  0  0  0  0  0  0
   -5.3201    4.5403    0.0000 O   0  0  0  0  0  0  0  0  0  0  0  0
   -6.3991    0.3144    0.0000 C   0  0  0  0  0  0  0  0  0  0  0  0
   -6.5360    1.1961    0.0000 C   0  0  0  0  0  0  0  0  0  0  0  0
   -7.1290    0.8732    0.0000 C   0  0  0  0  0  0  0  0  0  0  0  0
   -7.8305    1.4331    0.0000 C   0  0  0  0  0  0  0  0  0  0  0  0
   -8.5986    1.1320    0.0000 N   0  0  0  0  0  0  0  0  0  0  0  0
   -7.7073    2.2488    0.0000 O   0  0  0  0  0  0  0  0  0  0  0  0
   -6.6057   -0.4843    0.0000 C   0  0  0  0  0  0  0  0  0  0  0  0
   -7.3614   -0.9022    0.0000 C   0  0  0  0  0  0  0  0  0  0  0  0
   -7.6365   -1.7242    0.0000 C   0  0  0  0  0  0  0  0  0  0  0  0
   -8.4450   -1.8885    0.0000 C   0  0  0  0  0  0  0  0  0  0  0  0
   -8.7068   -2.6709    0.0000 N   0  0  0  0  0  0  0  0  0  0  0  0
   -8.9916   -1.2706    0.0000 O   0  0  0  0  0  0  0  0  0  0  0  0
   -4.6071   -3.1284    0.0000 C   0  0  0  0  0  0  0  0  0  0  0  0
   -4.8263   -3.9898    0.0000 C   0  0  0  0  0  0  0  0  0  0  0  0
   -5.4671   -3.2715    0.0000 C   0  0  0  0  0  0  0  0  0  0  0  0
   -3.7912   -3.2504    0.0000 C   0  0  0  0  0  0  0  0  0  0  0  0
   -3.3855   -4.0132    0.0000 C   0  0  0  0  0  0  0  0  0  0  0  0
   -3.6059   -4.8924    0.0000 C   0  0  0  0  0  0  0  0  0  0  0  0
   -3.0131   -5.4662    0.0000 C   0  0  0  0  0  0  0  0  0  0  0  0
   -2.2198   -5.2398    0.0000 N   0  0  0  0  0  0  0  0  0  0  0  0
   -3.2137   -6.2665    0.0000 O   0  0  0  0  0  0  0  0  0  0  0  0
    0.0000    0.0000    0.0000 H   0  0  0  0  0  0  0  0  0  0  0  0
    0.0000    0.0000    0.0000 H   0  0  0  0  0  0  0  0  0  0  0  0
    0.0000    0.0000    0.0000 H   0  0  0  0  0  0  0  0  0  0  0  0
    0.0000    0.0000    0.0000 H   0  0  0  0  0  0  0  0  0  0  0  0
    0.0000    0.0000    0.0000 H   0  0  0  0  0  0  0  0  0  0  0  0
    0.0000    0.0000    0.0000 H   0  0  0  0  0  0  0  0  0  0  0  0
    0.0000    0.0000    0.0000 H   0  0  0  0  0  0  0  0  0  0  0  0
    0.0000    0.0000    0.0000 H   0  0  0  0  0  0  0  0  0  0  0  0
    0.0000    0.0000    0.0000 H   0  0  0  0  0  0  0  0  0  0  0  0
    0.0000    0.0000    0.0000 H   0  0  0  0  0  0  0  0  0  0  0  0
    0.0000    0.0000    0.0000 H   0  0  0  0  0  0  0  0  0  0  0  0
    0.0000    0.0000    0.0000 H   0  0  0  0  0  0  0  0  0  0  0  0
    0.0000    0.0000    0.0000 H   0  0  0  0  0  0  0  0  0  0  0  0
    0.0000    0.0000    0.0000 H   0  0  0  0  0  0  0  0  0  0  0  0
    0.0000    0.0000    0.0000 H   0  0  0  0  0  0  0  0  0  0  0  0
    0.0000    0.0000    0.0000 H   0  0  0  0  0  0  0  0  0  0  0  0
    0.0000    0.0000    0.0000 H   0  0  0  0  0  0  0  0  0  0  0  0
    0.0000    0.0000    0.0000 H   0  0  0  0  0  0  0  0  0  0  0  0
    0.0000    0.0000    0.0000 H   0  0  0  0  0  0  0  0  0  0  0  0
    0.0000    0.0000    0.0000 H   0  0  0  0  0  0  0  0  0  0  0  0
    0.0000    0.0000    0.0000 H   0  0  0  0  0  0  0  0  0  0  0  0
    0.0000    0.0000    0.0000 H   0  0  0  0  0  0  0  0  0  0  0  0
    0.0000    0.0000    0.0000 H   0  0  0  0  0  0  0  0  0  0  0  0
    0.0000    0.0000    0.0000 H   0  0  0  0  0  0  0  0  0  0  0  0
    0.0000    0.0000    0.0000 H   0  0  0  0  0  0  0  0  0  0  0  0
    0.0000    0.0000    0.0000 H   0  0  0  0  0  0  0  0  0  0  0  0
    0.0000    0.0000    0.0000 H   0  0  0  0  0  0  0  0  0  0  0  0
    0.0000    0.0000    0.0000 H   0  0  0  0  0  0  0  0  0  0  0  0
    0.0000    0.0000    0.0000 H   0  0  0  0  0  0  0  0  0  0  0  0
    0.0000    0.0000    0.0000 H   0  0  0  0  0  0  0  0  0  0  0  0
    0.0000    0.0000    0.0000 H   0  0  0  0  0  0  0  0  0  0  0  0
    0.0000    0.0000    0.0000 H   0  0  0  0  0  0  0  0  0  0  0  0
    0.0000    0.0000    0.0000 H   0  0  0  0  0  0  0  0  0  0  0  0
    0.0000    0.0000    0.0000 H   0  0  0  0  0  0  0  0  0  0  0  0
    0.0000    0.0000    0.0000 H   0  0  0  0  0  0  0  0  0  0  0  0
    0.0000    0.0000    0.0000 H   0  0  0  0  0  0  0  0  0  0  0  0
    0.0000    0.0000    0.0000 H   0  0  0  0  0  0  0  0  0  0  0  0
    0.0000    0.0000    0.0000 H   0  0  0  0  0  0  0  0  0  0  0  0
    0.0000    0.0000    0.0000 H   0  0  0  0  0  0  0  0  0  0  0  0
    0.0000    0.0000    0.0000 H   0  0  0  0  0  0  0  0  0  0  0  0
    0.0000    0.0000    0.0000 H   0  0  0  0  0  0  0  0  0  0  0  0
    0.0000    0.0000    0.0000 H   0  0  0  0  0  0  0  0  0  0  0  0
    0.0000    0.0000    0.0000 H   0  0  0  0  0  0  0  0  0  0  0  0
    0.0000    0.0000    0.0000 H   0  0  0  0  0  0  0  0  0  0  0  0
    0.0000    0.0000    0.0000 H   0  0  0  0  0  0  0  0  0  0  0  0
    0.0000    0.0000    0.0000 H   0  0  0  0  0  0  0  0  0  0  0  0
    0.0000    0.0000    0.0000 H   0  0  0  0  0  0  0  0  0  0  0  0
    0.0000    0.0000    0.0000 H   0  0  0  0  0  0  0  0  0  0  0  0
    0.0000    0.0000    0.0000 H   0  0  0  0  0  0  0  0  0  0  0  0
    0.0000    0.0000    0.0000 H   0  0  0  0  0  0  0  0  0  0  0  0
    0.0000    0.0000    0.0000 H   0  0  0  0  0  0  0  0  0  0  0  0
    0.0000    0.0000    0.0000 H   0  0  0  0  0  0  0  0  0  0  0  0
    0.0000    0.0000    0.0000 H   0  0  0  0  0  0  0  0  0  0  0  0
    0.0000    0.0000    0.0000 H   0  0  0  0  0  0  0  0  0  0  0  0
    0.0000    0.0000    0.0000 H   0  0  0  0  0  0  0  0  0  0  0  0
    0.0000    0.0000    0.0000 H   0  0  0  0  0  0  0  0  0  0  0  0
    0.0000    0.0000    0.0000 H   0  0  0  0  0  0  0  0  0  0  0  0
    0.0000    0.0000    0.0000 H   0  0  0  0  0  0  0  0  0  0  0  0
    0.0000    0.0000    0.0000 H   0  0  0  0  0  0  0  0  0  0  0  0
    0.0000    0.0000    0.0000 H   0  0  0  0  0  0  0  0  0  0  0  0
    0.0000    0.0000    0.0000 H   0  0  0  0  0  0  0  0  0  0  0  0
    0.0000    0.0000    0.0000 H   0  0  0  0  0  0  0  0  0  0  0  0
    0.0000    0.0000    0.0000 H   0  0  0  0  0  0  0  0  0  0  0  0
    0.0000    0.0000    0.0000 H   0  0  0  0  0  0  0  0  0  0  0  0
    0.0000    0.0000    0.0000 H   0  0  0  0  0  0  0  0  0  0  0  0
    0.0000    0.0000    0.0000 H   0  0  0  0  0  0  0  0  0  0  0  0
    0.0000    0.0000    0.0000 H   0  0  0  0  0  0  0  0  0  0  0  0
    0.0000    0.0000    0.0000 H   0  0  0  0  0  0  0  0  0  0  0  0
    0.0000    0.0000    0.0000 H   0  0  0  0  0  0  0  0  0  0  0  0
    0.0000    0.0000    0.0000 H   0  0  0  0  0  0  0  0  0  0  0  0
    0.0000    0.0000    0.0000 H   0  0  0  0  0  0  0  0  0  0  0  0
    0.0000    0.0000    0.0000 H   0  0  0  0  0  0  0  0  0  0  0  0
    0.0000    0.0000    0.0000 H   0  0  0  0  0  0  0  0  0  0  0  0
    0.0000    0.0000    0.0000 H   0  0  0  0  0  0  0  0  0  0  0  0
    0.0000    0.0000    0.0000 H   0  0  0  0  0  0  0  0  0  0  0  0
    0.0000    0.0000    0.0000 H   0  0  0  0  0  0  0  0  0  0  0  0
    0.0000    0.0000    0.0000 H   0  0  0  0  0  0  0  0  0  0  0  0
    0.0000    0.0000    0.0000 H   0  0  0  0  0  0  0  0  0  0  0  0
    0.0000    0.0000    0.0000 H   0  0  0  0  0  0  0  0  0  0  0  0
    0.0000    0.0000    0.0000 H   0  0  0  0  0  0  0  0  0  0  0  0
    0.0000    0.0000    0.0000 H   0  0  0  0  0  0  0  0  0  0  0  0
    0.0000    0.0000    0.0000 H   0  0  0  0  0  0  0  0  0  0  0  0
    0.0000    0.0000    0.0000 H   0  0  0  0  0  0  0  0  0  0  0  0
    0.0000    0.0000    0.0000 H   0  0  0  0  0  0  0  0  0  0  0  0
    0.0000    0.0000    0.0000 H   0  0  0  0  0  0  0  0  0  0  0  0
    0.0000    0.0000    0.0000 H   0  0  0  0  0  0  0  0  0  0  0  0
    0.0000    0.0000    0.0000 H   0  0  0  0  0  0  0  0  0  0  0  0
    0.0000    0.0000    0.0000 H   0  0  0  0  0  0  0  0  0  0  0  0
    0.0000    0.0000    0.0000 H   0  0  0  0  0  0  0  0  0  0  0  0
    0.0000    0.0000    0.0000 H   0  0  0  0  0  0  0  0  0  0  0  0
    0.0000    0.0000    0.0000 H   0  0  0  0  0  0  0  0  0  0  0  0
  1  2  1  0
  2  3  1  6
  3  4  1  0
  4  5  1  0
  4  6  2  0
  2  7  1  0
  7  8  1  6
  7  9  1  0
  9 10  1  0
 10 11  1  0
 11 12  2  0
 11 13  1  0
 13 14  1  0
 14 15  1  0
 15 16  1  1
 15 17  1  0
 17 18  1  0
 18 19  1  0
 18 20  2  0
 18 21  1  0
 22 21  1  0
 22 23  1  0
 23 24  1  1
 23 25  1  0
 25 26  1  0
 26 27  1  0
 22 27  1  0
 27 28  1  6
 28 29  1  0
 25 30  1  0
 30 31  1  0
 31 32  2  0
 32 33  1  0
 33 34  2  0
 34 35  1  0
 35 36  1  0
 35 37  2  0
 37 38  1  0
 37 39  1  0
 39 40  2  0
 30 40  1  0
 33 40  1  0
 32 41  1  0
 41 42  1  0
 41 43  1  0
  1 43  1  0
 43 44  1  0
  7 44  1  0
 44 45  2  0
 45 46  1  0
 45 47  1  0
 47 48  2  0
 41 48  1  0
 48 49  1  0
 49 50  2  0
 50 51  1  0
 51 52  2  0
 41 52  1  0
 52 53  1  0
 53 54  2  0
 54 55  1  0
 54 56  1  0
 56 57  2  0
 41 57  1  0
 57 58  1  0
  1 58  1  0
 58 59  1  1
 58 60  1  0
 60 61  1  1
 60 62  1  0
 62 63  1  0
 63 64  1  0
 63 65  2  0
 60 66  1  0
 56 66  1  0
 66 67  1  6
 67 68  1  0
 68 69  1  0
 69 70  1  0
 69 71  2  0
 53 72  1  0
 72 73  1  1
 72 74  1  0
 74 75  1  0
 75 76  1  0
 75 77  2  0
 72 78  1  0
 51 78  1  0
 78 79  1  6
 79 80  1  0
 80 81  1  0
 81 82  1  0
 81 83  2  0
 49 84  1  0
 84 85  1  0
 84 86  1  0
 84 87  1  0
 47 87  1  0
 87 88  1  1
 88 89  1  0
 89 90  1  0
 90 91  1  0
 90 92  2  0
  1 93  1  6
  2 94  1  0
  3 95  1  0
  3 96  1  0
  5 97  1  0
  5 98  1  0
  8 99  1  0
  8100  1  0
  8101  1  0
  9102  1  0
  9103  1  0
 10104  1  0
 10105  1  0
 13106  1  0
 14107  1  0
 14108  1  0
 15109  1  0
 16110  1  0
 16111  1  0
 16112  1  0
 22113  1  6
 23114  1  0
 24115  1  0
 25116  1  6
 27117  1  0
 28118  1  0
 28119  1  0
 29120  1  0
 31121  1  0
 34122  1  0
 36123  1  0
 36124  1  0
 36125  1  0
 38126  1  0
 38127  1  0
 38128  1  0
 39129  1  0
 42130  1  0
 42131  1  0
 42132  1  0
 46133  1  0
 46134  1  0
 46135  1  0
 50136  1  0
 55137  1  0
 55138  1  0
 55139  1  0
 59140  1  0
 59141  1  0
 59142  1  0
 61143  1  0
 61144  1  0
 61145  1  0
 62146  1  0
 62147  1  0
 64148  1  0
 64149  1  0
 66150  1  0
 67151  1  0
 67152  1  0
 68153  1  0
 68154  1  0
 70155  1  0
 70156  1  0
 73157  1  0
 73158  1  0
 73159  1  0
 74160  1  0
 74161  1  0
 76162  1  0
 76163  1  0
 78164  1  0
 79165  1  0
 79166  1  0
 80167  1  0
 80168  1  0
 82169  1  0
 82170  1  0
 85171  1  0
 85172  1  0
 85173  1  0
 86174  1  0
 86175  1  0
 86176  1  0
 87177  1  0
 88178  1  0
 88179  1  0
 89180  1  0
 89181  1  0
 91182  1  0
 91183  1  0
M  CHG  6  19  -1  32   1  41  -3  48   1  52   1  57   1
M  END
>  <DATABASE_ID>  (1) 
DB03614

>  <DATABASE_NAME>  (1) 
drugbank

>  <DRUGBANK_ID>  (1) 
DB03614

>  <DRUG_GROUPS>  (1) 
approved; experimental

>  <EXACT_MASS>  (1) 
1343.587806391

>  <FORMULA>  (1) 
C63H91CoN13O14P

>  <GENERIC_NAME>  (1) 
Methylcobalamin

>  <INCHI_IDENTIFIER>  (1) 
InChI=1S/C62H90N13O14P.CH3.Co/c1-29-20-39-40(21-30(29)2)75(28-70-39)57-52(84)53(41(27-76)87-57)89-90(85,86)88-31(3)26-69-49(83)18-19-59(8)37(22-46(66)80)56-62(11)61(10,25-48(68)82)36(14-17-45(65)79)51(74-62)33(5)55-60(9,24-47(67)81)34(12-15-43(63)77)38(71-55)23-42-58(6,7)35(13-16-44(64)78)50(72-42)32(4)54(59)73-56;;/h20-21,23,28,31,34-37,41,52-53,56-57,76,84H,12-19,22,24-27H2,1-11H3,(H15,63,64,65,66,67,68,69,71,72,73,74,77,78,79,80,81,82,83,85,86);1H3;/q;;+2/p-2/t31-,34-,35-,36-,37+,41-,52-,53-,56-,57+,59-,60+,61+,62+;;/m1../s1

>  <INCHI_KEY>  (1) 
JEWJRMKHSMTXPP-WZHZPDAFSA-L

>  <JCHEM_ACCEPTOR_COUNT>  (1) 
13

>  <JCHEM_ATOM_COUNT>  (1) 
183

>  <JCHEM_AVERAGE_POLARIZABILITY>  (1) 
135.87237629586508

>  <JCHEM_BIOAVAILABILITY>  (1) 
0

>  <JCHEM_DONOR_COUNT>  (1) 
9

>  <JCHEM_FORMAL_CHARGE>  (1) 
0

>  <JCHEM_GHOSE_FILTER>  (1) 
0

>  <JCHEM_IUPAC>  (1) 
(10S,12R,13S,17R,23R,24R,25R,30S,35S,36S,40S,41S,42R,46R)-30,35,40-tris(2-carbamoylethyl)-24,36,41-tris(carbamoylmethyl)-46-hydroxy-12-(hydroxymethyl)-1,5,6,17,23,28,31,31,36,38,41,42-dodecamethyl-15,20-dioxo-11,14,16-trioxa-2λ⁵,9,19,26,43λ⁵,44λ⁵,45λ⁵-heptaaza-15λ⁵-phospha-1-cobaltadodecacyclo[27.14.1.1¹,³⁴.1²,⁹.1¹⁰,¹³.0¹,²⁶.0³,⁸.0²³,²⁷.0²⁵,⁴².0³²,⁴⁴.0³⁹,⁴³.0³⁷,⁴⁵]heptatetraconta-2(47),3,5,7,27,29(44),32,34(45),37,39(43)-decaene-2,43,44,45-tetrakis(ylium)-1,1,1-triuid-15-olate

>  <JCHEM_LOGP>  (1) 
-13.88479676588698

>  <JCHEM_MDDR_LIKE_RULE>  (1) 
1

>  <JCHEM_NUMBER_OF_RINGS>  (1) 
12

>  <JCHEM_PHYSIOLOGICAL_CHARGE>  (1) 
0

>  <JCHEM_PKA>  (1) 
12.579386323469642

>  <JCHEM_PKA_STRONGEST_ACIDIC>  (1) 
1.8190893728359194

>  <JCHEM_PKA_STRONGEST_BASIC>  (1) 
-0.4426613958262743

>  <JCHEM_POLAR_SURFACE_AREA>  (1) 
416.9999999999999

>  <JCHEM_REFRACTIVITY>  (1) 
342.7936000000001

>  <JCHEM_ROTATABLE_BOND_COUNT>  (1) 
16

>  <JCHEM_RULE_OF_FIVE>  (1) 
0

>  <JCHEM_TRADITIONAL_IUPAC>  (1) 
(10S,12R,13S,17R,23R,24R,25R,30S,35S,36S,40S,41S,42R,46R)-30,35,40-tris(2-carbamoylethyl)-24,36,41-tris(carbamoylmethyl)-46-hydroxy-12-(hydroxymethyl)-1,5,6,17,23,28,31,31,36,38,41,42-dodecamethyl-15,20-dioxo-11,14,16-trioxa-2λ⁵,9,19,26,43λ⁵,44λ⁵,45λ⁵-heptaaza-15λ⁵-phospha-1-cobaltadodecacyclo[27.14.1.1¹,³⁴.1²,⁹.1¹⁰,¹³.0¹,²⁶.0³,⁸.0²³,²⁷.0²⁵,⁴².0³²,⁴⁴.0³⁹,⁴³.0³⁷,⁴⁵]heptatetraconta-2(47),3,5,7,27,29(44),32,34(45),37,39(43)-decaene-2,43,44,45-tetrakis(ylium)-1,1,1-triuid-15-olate

>  <JCHEM_VEBER_RULE>  (1) 
0

>  <MOLECULAR_WEIGHT>  (1) 
1344.3823

>  <PRODUCTS>  (1) 
B-Combo; B12 1000mcg (methylcobalamin); Co-Veratrol; L-Methyl-B6-B12; Maxaron Forte; Methaver; Methylcobalamin; healthy mamaBE WELL ROUNDED BE WELL ROUNDED

>  <SECONDARY_ACCESSION_NUMBERS>  (1) 
EXPT00979

>  <SMILES>  (1) 
C1(CC[C@@]2([C@@H](CC(N)=O)[C@@]3([C@@]4([N+]5=C([C@H]([C@@]4(CC(N)=O)C)CCC(N)=O)C(C)=C4[N+]6=C(C=C7[N+]8=C([C@H](C7(C)C)CCC(N)=O)C(C)=C2N3[Co-3]568([N+]2=CN([C@H]3O[C@@H]([C@@H](OP(O[C@@H](CN1)C)([O-])=O)[C@H]3O)CO)C1=CC(C)=C(C=C21)C)C)[C@H]([C@@]4(CC(N)=O)C)CCC(N)=O)C)[H])C)=O

>  <SYNONYMS>  (1) 
Co-methylcobalamin; MeCbl; mecobalamin; methyl(III)cobalamin; Methylcobalamin

$$$$
