
     RDKit          2D

 40 41  0  0  1  0  0  0  0  0999 V2000
    3.7935    1.2433    0.0000 O   0  0  0  0  0  0  0  0  0  0  0  0
    3.0791    0.0058    0.0000 N   0  0  0  0  0  0  0  0  0  0  0  0
    5.6350    1.9578    0.0000 N   0  0  0  0  0  0  0  0  0  0  0  0
    4.5080    0.0058    0.0000 C   0  0  0  0  0  0  0  0  0  0  0  0
    4.9205    0.7202    0.0000 C   0  0  0  0  0  0  0  0  0  0  0  0
    5.3330    0.0058    0.0000 C   0  0  0  0  0  0  0  0  0  0  0  0
    4.9205    1.5453    0.0000 C   0  0  0  0  0  0  0  0  0  0  0  0
    4.5080   -0.8192    0.0000 C   0  0  0  0  0  0  0  0  0  0  0  0
    3.7935    0.4183    0.0000 C   0  0  0  0  0  0  0  0  0  0  0  0
    5.2224   -1.2318    0.0000 C   0  0  0  0  0  0  0  0  0  0  0  0
    3.7935   -1.2318    0.0000 C   0  0  0  0  0  0  0  0  0  0  0  0
    3.0791   -0.8192    0.0000 C   0  0  0  0  0  0  0  0  0  0  0  0
    2.3645    0.4183    0.0000 C   0  0  0  0  0  0  0  0  0  0  0  0
    5.2224   -2.0568    0.0000 C   0  0  0  0  0  0  0  0  0  0  0  0
    3.7935   -2.0568    0.0000 C   0  0  0  0  0  0  0  0  0  0  0  0
    4.5080   -2.4693    0.0000 C   0  0  0  0  0  0  0  0  0  0  0  0
    2.3645   -1.2318    0.0000 C   0  0  0  0  0  0  0  0  0  0  0  0
    1.6500    0.0058    0.0000 C   0  0  0  0  0  0  0  0  0  0  0  0
    0.0000    0.0000    0.0000 H   0  0  0  0  0  0  0  0  0  0  0  0
    0.0000    0.0000    0.0000 H   0  0  0  0  0  0  0  0  0  0  0  0
    0.0000    0.0000    0.0000 H   0  0  0  0  0  0  0  0  0  0  0  0
    0.0000    0.0000    0.0000 H   0  0  0  0  0  0  0  0  0  0  0  0
    0.0000    0.0000    0.0000 H   0  0  0  0  0  0  0  0  0  0  0  0
    0.0000    0.0000    0.0000 H   0  0  0  0  0  0  0  0  0  0  0  0
    0.0000    0.0000    0.0000 H   0  0  0  0  0  0  0  0  0  0  0  0
    0.0000    0.0000    0.0000 H   0  0  0  0  0  0  0  0  0  0  0  0
    0.0000    0.0000    0.0000 H   0  0  0  0  0  0  0  0  0  0  0  0
    0.0000    0.0000    0.0000 H   0  0  0  0  0  0  0  0  0  0  0  0
    0.0000    0.0000    0.0000 H   0  0  0  0  0  0  0  0  0  0  0  0
    0.0000    0.0000    0.0000 H   0  0  0  0  0  0  0  0  0  0  0  0
    0.0000    0.0000    0.0000 H   0  0  0  0  0  0  0  0  0  0  0  0
    0.0000    0.0000    0.0000 H   0  0  0  0  0  0  0  0  0  0  0  0
    0.0000    0.0000    0.0000 H   0  0  0  0  0  0  0  0  0  0  0  0
    0.0000    0.0000    0.0000 H   0  0  0  0  0  0  0  0  0  0  0  0
    0.0000    0.0000    0.0000 H   0  0  0  0  0  0  0  0  0  0  0  0
    0.0000    0.0000    0.0000 H   0  0  0  0  0  0  0  0  0  0  0  0
    0.0000    0.0000    0.0000 H   0  0  0  0  0  0  0  0  0  0  0  0
    0.0000    0.0000    0.0000 H   0  0  0  0  0  0  0  0  0  0  0  0
    0.0000    0.0000    0.0000 H   0  0  0  0  0  0  0  0  0  0  0  0
    0.0000    0.0000    0.0000 H   0  0  0  0  0  0  0  0  0  0  0  0
  1  9  2  0
  2  9  1  0
  2 12  1  0
  2 13  1  0
  3  7  1  0
  4  5  1  0
  4  6  1  0
  4  8  1  6
  4  9  1  0
  5  6  1  0
  5  7  1  1
  8 10  2  0
  8 11  1  0
 10 14  1  0
 11 15  2  0
 12 17  1  0
 13 18  1  0
 14 16  2  0
 15 16  1  0
  3 19  1  0
  3 20  1  0
  5 21  1  0
  6 22  1  0
  6 23  1  0
  7 24  1  0
  7 25  1  0
 10 26  1  0
 11 27  1  0
 12 28  1  0
 12 29  1  0
 13 30  1  0
 13 31  1  0
 14 32  1  0
 15 33  1  0
 16 34  1  0
 17 35  1  0
 17 36  1  0
 17 37  1  0
 18 38  1  0
 18 39  1  0
 18 40  1  0
M  END
>  <ALOGPS_LOGP>  (1) 
1.72

>  <ALOGPS_LOGS>  (1) 
-2.30

>  <ALOGPS_SOLUBILITY>  (1) 
1.23e+00 g/l

>  <DATABASE_ID>  (1) 
DB04896

>  <DATABASE_NAME>  (1) 
drugbank

>  <DRUGBANK_ID>  (1) 
DB04896

>  <DRUG_GROUPS>  (1) 
approved

>  <EXACT_MASS>  (1) 
246.173213336

>  <FORMULA>  (1) 
C15H22N2O

>  <GENERIC_NAME>  (1) 
Milnacipran

>  <INCHI_IDENTIFIER>  (1) 
InChI=1S/C15H22N2O/c1-3-17(4-2)14(18)15(10-13(15)11-16)12-8-6-5-7-9-12/h5-9,13H,3-4,10-11,16H2,1-2H3/t13-,15+/m1/s1

>  <INCHI_KEY>  (1) 
GJJFMKBJSRMPLA-HIFRSBDPSA-N

>  <INTERNATIONAL_BRANDS>  (1) 
Dalcipran ; Ixel; Toledomin

>  <JCHEM_ACCEPTOR_COUNT>  (1) 
2

>  <JCHEM_AVERAGE_POLARIZABILITY>  (1) 
28.027975637873595

>  <JCHEM_BIOAVAILABILITY>  (1) 
1

>  <JCHEM_DONOR_COUNT>  (1) 
1

>  <JCHEM_FORMAL_CHARGE>  (1) 
0

>  <JCHEM_GHOSE_FILTER>  (1) 
1

>  <JCHEM_IUPAC>  (1) 
(1R,2S)-2-(aminomethyl)-N,N-diethyl-1-phenylcyclopropane-1-carboxamide

>  <JCHEM_LOGP>  (1) 
1.421706622999999

>  <JCHEM_MDDR_LIKE_RULE>  (1) 
0

>  <JCHEM_NUMBER_OF_RINGS>  (1) 
2

>  <JCHEM_PHYSIOLOGICAL_CHARGE>  (1) 
1

>  <JCHEM_PKA_STRONGEST_BASIC>  (1) 
9.827548067218556

>  <JCHEM_POLAR_SURFACE_AREA>  (1) 
46.33

>  <JCHEM_REFRACTIVITY>  (1) 
73.80950000000001

>  <JCHEM_ROTATABLE_BOND_COUNT>  (1) 
5

>  <JCHEM_RULE_OF_FIVE>  (1) 
1

>  <JCHEM_TRADITIONAL_IUPAC>  (1) 
milnacipran

>  <JCHEM_VEBER_RULE>  (1) 
0

>  <MOLECULAR_WEIGHT>  (1) 
246.348

>  <PRODUCTS>  (1) 
Milnacipran hydrochloride; Savella

>  <SALTS>  (1) 
Milnacipran Hydrochloride

>  <SMILES>  (1) 
CCN(CC)C(=O)[C@@]1(C[C@@H]1CN)C1=CC=CC=C1

>  <SYNONYMS>  (1) 
Milnacipranum

$$$$
