
     RDKit          2D

 58 62  0  0  0  0  0  0  0  0999 V2000
   10.6315  -10.3362    0.0000 C   0  0  0  0  0  0  0  0  0  0  0  0
    9.9170  -10.7487    0.0000 C   0  0  0  0  0  0  0  0  0  0  0  0
    9.9170  -11.5737    0.0000 C   0  0  0  0  0  0  0  0  0  0  0  0
   10.6315  -11.9862    0.0000 C   0  0  0  0  0  0  0  0  0  0  0  0
   11.3459  -11.5737    0.0000 C   0  0  0  0  0  0  0  0  0  0  0  0
   11.3459  -10.7487    0.0000 C   0  0  0  0  0  0  0  0  0  0  0  0
   12.0603  -10.3362    0.0000 C   0  0  0  0  0  0  0  0  0  0  0  0
   12.0603  -11.9862    0.0000 C   0  0  0  0  0  0  0  0  0  0  0  0
   12.7749  -11.5737    0.0000 C   0  0  0  0  0  0  0  0  0  0  0  0
   12.7749  -10.7487    0.0000 C   0  0  0  0  0  0  0  0  0  0  0  0
   12.7749   -9.0986    0.0000 C   0  0  0  0  0  0  0  0  0  0  0  0
   12.0603   -9.5112    0.0000 C   0  0  0  0  0  0  0  0  0  0  0  0
   13.4893  -10.3362    0.0000 C   0  0  0  0  0  0  0  0  0  0  0  0
   13.4893   -9.5112    0.0000 C   0  0  0  0  0  0  0  0  0  0  0  0
   14.2740   -9.2562    0.0000 C   0  0  0  0  0  0  0  0  0  0  0  0
   14.2740  -10.5911    0.0000 C   0  0  0  0  0  0  0  0  0  0  0  0
   14.7589   -9.9237    0.0000 C   0  0  0  0  0  0  0  0  0  0  0  0
    9.2025  -11.9862    0.0000 O   0  0  0  0  0  0  0  0  0  0  0  0
   12.0603  -12.8112    0.0000 Cl  0  0  0  0  0  0  0  0  0  0  0  0
   14.2740   -8.4312    0.0000 C   0  0  0  0  0  0  0  0  0  0  0  0
   13.5595   -8.0187    0.0000 C   0  0  0  0  0  0  0  0  0  0  0  0
   14.9884   -8.0187    0.0000 O   0  0  0  0  0  0  0  0  0  0  0  0
   14.9884   -8.8437    0.0000 O   0  0  0  0  0  0  0  0  0  0  0  0
   13.4893   -8.6862    0.0000 C   0  0  0  0  0  0  0  0  0  0  0  0
   11.3459   -9.9237    0.0000 C   0  0  0  0  0  0  0  0  0  0  0  0
    9.9170   -9.9237    0.0000 C   0  0  0  0  0  0  0  0  0  0  0  0
   15.7029   -9.2562    0.0000 C   0  0  0  0  0  0  0  0  0  0  0  0
   16.4173   -8.8437    0.0000 C   0  0  0  0  0  0  0  0  0  0  0  0
   15.7029  -10.0812    0.0000 O   0  0  0  0  0  0  0  0  0  0  0  0
    0.0000    0.0000    0.0000 H   0  0  0  0  0  0  0  0  0  0  0  0
    0.0000    0.0000    0.0000 H   0  0  0  0  0  0  0  0  0  0  0  0
    0.0000    0.0000    0.0000 H   0  0  0  0  0  0  0  0  0  0  0  0
    0.0000    0.0000    0.0000 H   0  0  0  0  0  0  0  0  0  0  0  0
    0.0000    0.0000    0.0000 H   0  0  0  0  0  0  0  0  0  0  0  0
    0.0000    0.0000    0.0000 H   0  0  0  0  0  0  0  0  0  0  0  0
    0.0000    0.0000    0.0000 H   0  0  0  0  0  0  0  0  0  0  0  0
    0.0000    0.0000    0.0000 H   0  0  0  0  0  0  0  0  0  0  0  0
    0.0000    0.0000    0.0000 H   0  0  0  0  0  0  0  0  0  0  0  0
    0.0000    0.0000    0.0000 H   0  0  0  0  0  0  0  0  0  0  0  0
    0.0000    0.0000    0.0000 H   0  0  0  0  0  0  0  0  0  0  0  0
    0.0000    0.0000    0.0000 H   0  0  0  0  0  0  0  0  0  0  0  0
    0.0000    0.0000    0.0000 H   0  0  0  0  0  0  0  0  0  0  0  0
    0.0000    0.0000    0.0000 H   0  0  0  0  0  0  0  0  0  0  0  0
    0.0000    0.0000    0.0000 H   0  0  0  0  0  0  0  0  0  0  0  0
    0.0000    0.0000    0.0000 H   0  0  0  0  0  0  0  0  0  0  0  0
    0.0000    0.0000    0.0000 H   0  0  0  0  0  0  0  0  0  0  0  0
    0.0000    0.0000    0.0000 H   0  0  0  0  0  0  0  0  0  0  0  0
    0.0000    0.0000    0.0000 H   0  0  0  0  0  0  0  0  0  0  0  0
    0.0000    0.0000    0.0000 H   0  0  0  0  0  0  0  0  0  0  0  0
    0.0000    0.0000    0.0000 H   0  0  0  0  0  0  0  0  0  0  0  0
    0.0000    0.0000    0.0000 H   0  0  0  0  0  0  0  0  0  0  0  0
    0.0000    0.0000    0.0000 H   0  0  0  0  0  0  0  0  0  0  0  0
    0.0000    0.0000    0.0000 H   0  0  0  0  0  0  0  0  0  0  0  0
    0.0000    0.0000    0.0000 H   0  0  0  0  0  0  0  0  0  0  0  0
    0.0000    0.0000    0.0000 H   0  0  0  0  0  0  0  0  0  0  0  0
    0.0000    0.0000    0.0000 H   0  0  0  0  0  0  0  0  0  0  0  0
    0.0000    0.0000    0.0000 H   0  0  0  0  0  0  0  0  0  0  0  0
    0.0000    0.0000    0.0000 H   0  0  0  0  0  0  0  0  0  0  0  0
  1  2  1  0
  2  3  1  0
  3  4  1  0
  4  5  2  0
  1  6  1  0
  7  6  1  0
  6  5  1  0
  5  8  1  0
  8  9  2  0
  9 10  1  0
 10 13  1  0
  7 10  1  0
 12  7  1  0
 11 12  1  0
 11 14  1  0
 15 14  1  0
 14 13  1  0
 13 16  1  0
 16 17  1  0
 15 17  1  0
  3 18  2  0
  8 19  1  0
 15 20  1  1
 20 21  1  0
 20 22  2  0
 15 23  1  0
 14 24  1  1
  6 25  1  1
  2 26  1  0
  1 26  1  0
 23 27  1  0
 27 28  1  0
 27 29  2  0
  1 30  1  1
  2 31  1  1
  4 32  1  0
  7 33  1  6
  9 34  1  0
 10 35  1  1
 11 36  1  0
 11 37  1  0
 12 38  1  0
 12 39  1  0
 13 40  1  6
 16 41  1  0
 16 42  1  0
 17 43  1  0
 17 44  1  0
 21 45  1  0
 21 46  1  0
 21 47  1  0
 24 48  1  0
 24 49  1  0
 24 50  1  0
 25 51  1  0
 25 52  1  0
 25 53  1  0
 26 54  1  0
 26 55  1  0
 28 56  1  0
 28 57  1  0
 28 58  1  0
M  END
>  <ALOGPS_LOGP>  (1) 
3.81

>  <ALOGPS_LOGS>  (1) 
-5.44

>  <ALOGPS_SOLUBILITY>  (1) 
1.52e-03 g/l

>  <DATABASE_ID>  (1) 
DB04839

>  <DATABASE_NAME>  (1) 
drugbank

>  <DRUGBANK_ID>  (1) 
DB04839

>  <DRUG_GROUPS>  (1) 
approved; investigational

>  <EXACT_MASS>  (1) 
416.175437123

>  <FORMULA>  (1) 
C24H29ClO4

>  <GENERIC_NAME>  (1) 
Cyproterone acetate

>  <INCHI_IDENTIFIER>  (1) 
InChI=1S/C24H29ClO4/c1-12(26)24(29-13(2)27)8-6-16-14-10-20(25)19-11-21(28)15-9-18(15)23(19,4)17(14)5-7-22(16,24)3/h10-11,14-18H,5-9H2,1-4H3/t14-,15+,16-,17-,18-,22-,23-,24-/m0/s1

>  <INCHI_KEY>  (1) 
UWFYSQMTEOIJJG-FDTZYFLXSA-N

>  <INTERNATIONAL_BRANDS>  (1) 
Cyprostat

>  <JCHEM_ACCEPTOR_COUNT>  (1) 
3

>  <JCHEM_AVERAGE_POLARIZABILITY>  (1) 
44.65198141007271

>  <JCHEM_BIOAVAILABILITY>  (1) 
1

>  <JCHEM_DONOR_COUNT>  (1) 
0

>  <JCHEM_FORMAL_CHARGE>  (1) 
0

>  <JCHEM_GHOSE_FILTER>  (1) 
1

>  <JCHEM_IUPAC>  (1) 
(1S,2S,3S,5R,11R,12S,15R,16S)-15-acetyl-9-chloro-2,16-dimethyl-6-oxopentacyclo[9.7.0.0²,⁸.0³,⁵.0¹²,¹⁶]octadeca-7,9-dien-15-yl acetate

>  <JCHEM_LOGP>  (1) 
3.6388569373333333

>  <JCHEM_MDDR_LIKE_RULE>  (1) 
0

>  <JCHEM_NUMBER_OF_RINGS>  (1) 
5

>  <JCHEM_PHYSIOLOGICAL_CHARGE>  (1) 
0

>  <JCHEM_PKA_STRONGEST_ACIDIC>  (1) 
17.829681246045016

>  <JCHEM_PKA_STRONGEST_BASIC>  (1) 
-5.60002622848816

>  <JCHEM_POLAR_SURFACE_AREA>  (1) 
60.440000000000005

>  <JCHEM_REFRACTIVITY>  (1) 
111.80949999999997

>  <JCHEM_ROTATABLE_BOND_COUNT>  (1) 
3

>  <JCHEM_RULE_OF_FIVE>  (1) 
1

>  <JCHEM_TRADITIONAL_IUPAC>  (1) 
cyproterone acetate

>  <JCHEM_VEBER_RULE>  (1) 
0

>  <MOLECULAR_WEIGHT>  (1) 
416.938

>  <PRODUCTS>  (1) 
Alti-cpa; Androcur; Androcur Depot; Cléo -35; Cyestra-35; Cyproterone; Diane-35; Med-cyproterone; Mylan-cyproterone; Novo-cyproterone; Novo-cyproterone/ethinyl Estradiol; Ran-cyproterone/ethinyl Estradiol; Riva-cyproterone; Riva-cyproterone 50 mg

>  <SMILES>  (1) 
[H][C@@]12C[C@]1([H])[C@@]1(C)C(=CC2=O)C(Cl)=C[C@@]2([H])[C@]3([H])CC[C@](OC(C)=O)(C(C)=O)[C@@]3(C)CC[C@]12[H]

>  <SYNONYMS>  (1) 
Cyproterone 17-O-acetate

$$$$
