
     RDKit          2D

 23 25  0  0  0  0  0  0  0  0999 V2000
    0.7145    3.0151    0.0000 S   0  0  0  0  0  0  0  0  0  0  0  0
    1.5395    3.0151    0.0000 P   0  0  0  0  0  0  0  0  0  0  0  0
    1.5395    2.1901    0.0000 N   0  0  0  0  0  0  0  0  0  0  0  0
    1.9520    1.4757    0.0000 C   0  0  0  0  0  0  0  0  0  0  0  0
    1.1270    1.4757    0.0000 C   0  0  0  0  0  0  0  0  0  0  0  0
    1.5395    3.8401    0.0000 N   0  0  0  0  0  0  0  0  0  0  0  0
    1.1270    4.5546    0.0000 C   0  0  0  0  0  0  0  0  0  0  0  0
    1.9520    4.5546    0.0000 C   0  0  0  0  0  0  0  0  0  0  0  0
    2.3645    3.0151    0.0000 N   0  0  0  0  0  0  0  0  0  0  0  0
    3.0789    3.4276    0.0000 C   0  0  0  0  0  0  0  0  0  0  0  0
    3.0789    2.6026    0.0000 C   0  0  0  0  0  0  0  0  0  0  0  0
    0.0000    0.0000    0.0000 H   0  0  0  0  0  0  0  0  0  0  0  0
    0.0000    0.0000    0.0000 H   0  0  0  0  0  0  0  0  0  0  0  0
    0.0000    0.0000    0.0000 H   0  0  0  0  0  0  0  0  0  0  0  0
    0.0000    0.0000    0.0000 H   0  0  0  0  0  0  0  0  0  0  0  0
    0.0000    0.0000    0.0000 H   0  0  0  0  0  0  0  0  0  0  0  0
    0.0000    0.0000    0.0000 H   0  0  0  0  0  0  0  0  0  0  0  0
    0.0000    0.0000    0.0000 H   0  0  0  0  0  0  0  0  0  0  0  0
    0.0000    0.0000    0.0000 H   0  0  0  0  0  0  0  0  0  0  0  0
    0.0000    0.0000    0.0000 H   0  0  0  0  0  0  0  0  0  0  0  0
    0.0000    0.0000    0.0000 H   0  0  0  0  0  0  0  0  0  0  0  0
    0.0000    0.0000    0.0000 H   0  0  0  0  0  0  0  0  0  0  0  0
    0.0000    0.0000    0.0000 H   0  0  0  0  0  0  0  0  0  0  0  0
  1  2  2  0
  2  3  1  0
  3  4  1  0
  4  5  1  0
  3  5  1  0
  2  6  1  0
  6  7  1  0
  7  8  1  0
  6  8  1  0
  2  9  1  0
  9 10  1  0
 10 11  1  0
  9 11  1  0
  4 12  1  0
  4 13  1  0
  5 14  1  0
  5 15  1  0
  7 16  1  0
  7 17  1  0
  8 18  1  0
  8 19  1  0
 10 20  1  0
 10 21  1  0
 11 22  1  0
 11 23  1  0
M  END
>  <ALOGPS_LOGP>  (1) 
0.17

>  <ALOGPS_LOGS>  (1) 
-1.31

>  <ALOGPS_SOLUBILITY>  (1) 
9.27e+00 g/l

>  <DATABASE_ID>  (1) 
DB04572

>  <DATABASE_NAME>  (1) 
drugbank

>  <DRUGBANK_ID>  (1) 
DB04572

>  <DRUG_GROUPS>  (1) 
approved

>  <EXACT_MASS>  (1) 
189.048954601

>  <FORMULA>  (1) 
C6H12N3PS

>  <GENERIC_NAME>  (1) 
Thiotepa

>  <INCHI_IDENTIFIER>  (1) 
InChI=1S/C6H12N3PS/c11-10(7-1-2-7,8-3-4-8)9-5-6-9/h1-6H2

>  <INCHI_KEY>  (1) 
FOCVUCIESVLUNU-UHFFFAOYSA-N

>  <JCHEM_ACCEPTOR_COUNT>  (1) 
3

>  <JCHEM_AVERAGE_POLARIZABILITY>  (1) 
18.228092043834042

>  <JCHEM_BIOAVAILABILITY>  (1) 
1

>  <JCHEM_DONOR_COUNT>  (1) 
0

>  <JCHEM_FORMAL_CHARGE>  (1) 
0

>  <JCHEM_GHOSE_FILTER>  (1) 
0

>  <JCHEM_IUPAC>  (1) 
tris(aziridin-1-yl)-λ⁵-phosphanethione

>  <JCHEM_LOGP>  (1) 
-1.0273805153333337

>  <JCHEM_MDDR_LIKE_RULE>  (1) 
0

>  <JCHEM_NUMBER_OF_RINGS>  (1) 
3

>  <JCHEM_PHYSIOLOGICAL_CHARGE>  (1) 
0

>  <JCHEM_PKA_STRONGEST_BASIC>  (1) 
-0.29921290491100205

>  <JCHEM_POLAR_SURFACE_AREA>  (1) 
9.03

>  <JCHEM_REFRACTIVITY>  (1) 
50.72220000000001

>  <JCHEM_ROTATABLE_BOND_COUNT>  (1) 
3

>  <JCHEM_RULE_OF_FIVE>  (1) 
1

>  <JCHEM_TRADITIONAL_IUPAC>  (1) 
thiophosphamide

>  <JCHEM_VEBER_RULE>  (1) 
1

>  <MOLECULAR_WEIGHT>  (1) 
189.218

>  <PRODUCTS>  (1) 
Tepadina; Thio Tepa Inj 15mg/vial; Thiotepa; Thiotepa - (pws 15 Mg/vial)

>  <SMILES>  (1) 
S=P(N1CC1)(N1CC1)N1CC1

$$$$
