
     RDKit          2D

 78 82  0  0  1  0  0  0  0  0999 V2000
    4.7191   -1.7208    0.0000 C   0  0  0  0  0  0  0  0  0  0  0  0
    3.6582   -0.7636    0.0000 C   0  0  0  0  0  0  0  0  0  0  0  0
    1.3959   -2.9981    0.0000 C   0  0  0  0  0  0  0  0  0  0  0  0
    0.0367    3.4488    0.0000 C   0  0  0  0  0  0  0  0  0  0  0  0
   -0.7882    3.4371    0.0000 C   0  0  0  0  0  0  0  0  0  0  0  0
    0.4593    2.7403    0.0000 C   0  0  0  0  0  0  0  0  0  0  0  0
   -1.1905    2.7169    0.0000 C   0  0  0  0  0  0  0  0  0  0  0  0
    0.0570    2.0200    0.0000 C   0  0  0  0  0  0  0  0  0  0  0  0
    0.7400   -1.2658    0.0000 C   0  0  0  0  0  0  0  0  0  0  0  0
    0.1197   -1.6427    0.0000 C   0  0  0  0  0  0  0  0  0  0  0  0
   -3.6653    2.6817    0.0000 C   0  0  0  0  0  0  0  0  0  0  0  0
   -3.6450    1.2529    0.0000 C   0  0  0  0  0  0  0  0  0  0  0  0
   -0.7476    0.5795    0.0000 C   0  0  0  0  0  0  0  0  0  0  0  0
   -4.4902    2.6700    0.0000 C   0  0  0  0  0  0  0  0  0  0  0  0
   -4.4699    1.2412    0.0000 C   0  0  0  0  0  0  0  0  0  0  0  0
    0.0773    0.5912    0.0000 C   0  0  0  0  0  0  0  0  0  0  0  0
    1.9893   -0.5417    0.0000 C   0  0  0  0  0  0  0  0  0  0  0  0
    1.6113   -0.9304    0.0000 C   0  0  0  0  0  0  0  0  0  0  0  0
    3.9123   -1.5485    0.0000 C   0  0  0  0  0  0  0  0  0  0  0  0
    2.2030   -2.8273    0.0000 C   0  0  0  0  0  0  0  0  0  0  0  0
   -0.7679    2.0083    0.0000 C   0  0  0  0  0  0  0  0  0  0  0  0
   -3.2427    1.9732    0.0000 C   0  0  0  0  0  0  0  0  0  0  0  0
    1.0605   -0.5572    0.0000 C   0  0  0  0  0  0  0  0  0  0  0  0
    0.6396   -0.9304    0.0000 C   0  0  0  0  0  0  0  0  0  0  0  0
    2.1275   -1.3591    0.0000 C   0  0  0  0  0  0  0  0  0  0  0  0
   -1.1702    1.2881    0.0000 C   0  0  0  0  0  0  0  0  0  0  0  0
    3.3597   -2.1610    0.0000 C   0  0  0  0  0  0  0  0  0  0  0  0
   -2.4178    1.9849    0.0000 C   0  0  0  0  0  0  0  0  0  0  0  0
   -4.8925    1.9497    0.0000 C   0  0  0  0  0  0  0  0  0  0  0  0
   -5.6264    2.3267    0.0000 F   0  0  0  0  0  0  0  0  0  0  0  0
   -5.6154    1.5521    0.0000 F   0  0  0  0  0  0  0  0  0  0  0  0
   -1.9951    1.2763    0.0000 N   0  0  0  0  0  0  0  0  0  0  0  0
    2.8155   -3.3800    0.0000 N   0  0  0  0  0  0  0  0  0  0  0  0
    3.5304   -2.9682    0.0000 N   0  0  0  0  0  0  0  0  0  0  0  0
    0.4999   -0.1173    0.0000 N   0  0  0  0  0  0  0  0  0  0  0  0
    2.5393   -2.0740    0.0000 N   0  0  0  0  0  0  0  0  0  0  0  0
   -2.0154    2.7051    0.0000 O   0  0  0  0  0  0  0  0  0  0  0  0
    0.0000    0.0000    0.0000 H   0  0  0  0  0  0  0  0  0  0  0  0
    0.0000    0.0000    0.0000 H   0  0  0  0  0  0  0  0  0  0  0  0
    0.0000    0.0000    0.0000 H   0  0  0  0  0  0  0  0  0  0  0  0
    0.0000    0.0000    0.0000 H   0  0  0  0  0  0  0  0  0  0  0  0
    0.0000    0.0000    0.0000 H   0  0  0  0  0  0  0  0  0  0  0  0
    0.0000    0.0000    0.0000 H   0  0  0  0  0  0  0  0  0  0  0  0
    0.0000    0.0000    0.0000 H   0  0  0  0  0  0  0  0  0  0  0  0
    0.0000    0.0000    0.0000 H   0  0  0  0  0  0  0  0  0  0  0  0
    0.0000    0.0000    0.0000 H   0  0  0  0  0  0  0  0  0  0  0  0
    0.0000    0.0000    0.0000 H   0  0  0  0  0  0  0  0  0  0  0  0
    0.0000    0.0000    0.0000 H   0  0  0  0  0  0  0  0  0  0  0  0
    0.0000    0.0000    0.0000 H   0  0  0  0  0  0  0  0  0  0  0  0
    0.0000    0.0000    0.0000 H   0  0  0  0  0  0  0  0  0  0  0  0
    0.0000    0.0000    0.0000 H   0  0  0  0  0  0  0  0  0  0  0  0
    0.0000    0.0000    0.0000 H   0  0  0  0  0  0  0  0  0  0  0  0
    0.0000    0.0000    0.0000 H   0  0  0  0  0  0  0  0  0  0  0  0
    0.0000    0.0000    0.0000 H   0  0  0  0  0  0  0  0  0  0  0  0
    0.0000    0.0000    0.0000 H   0  0  0  0  0  0  0  0  0  0  0  0
    0.0000    0.0000    0.0000 H   0  0  0  0  0  0  0  0  0  0  0  0
    0.0000    0.0000    0.0000 H   0  0  0  0  0  0  0  0  0  0  0  0
    0.0000    0.0000    0.0000 H   0  0  0  0  0  0  0  0  0  0  0  0
    0.0000    0.0000    0.0000 H   0  0  0  0  0  0  0  0  0  0  0  0
    0.0000    0.0000    0.0000 H   0  0  0  0  0  0  0  0  0  0  0  0
    0.0000    0.0000    0.0000 H   0  0  0  0  0  0  0  0  0  0  0  0
    0.0000    0.0000    0.0000 H   0  0  0  0  0  0  0  0  0  0  0  0
    0.0000    0.0000    0.0000 H   0  0  0  0  0  0  0  0  0  0  0  0
    0.0000    0.0000    0.0000 H   0  0  0  0  0  0  0  0  0  0  0  0
    0.0000    0.0000    0.0000 H   0  0  0  0  0  0  0  0  0  0  0  0
    0.0000    0.0000    0.0000 H   0  0  0  0  0  0  0  0  0  0  0  0
    0.0000    0.0000    0.0000 H   0  0  0  0  0  0  0  0  0  0  0  0
    0.0000    0.0000    0.0000 H   0  0  0  0  0  0  0  0  0  0  0  0
    0.0000    0.0000    0.0000 H   0  0  0  0  0  0  0  0  0  0  0  0
    0.0000    0.0000    0.0000 H   0  0  0  0  0  0  0  0  0  0  0  0
    0.0000    0.0000    0.0000 H   0  0  0  0  0  0  0  0  0  0  0  0
    0.0000    0.0000    0.0000 H   0  0  0  0  0  0  0  0  0  0  0  0
    0.0000    0.0000    0.0000 H   0  0  0  0  0  0  0  0  0  0  0  0
    0.0000    0.0000    0.0000 H   0  0  0  0  0  0  0  0  0  0  0  0
    0.0000    0.0000    0.0000 H   0  0  0  0  0  0  0  0  0  0  0  0
    0.0000    0.0000    0.0000 H   0  0  0  0  0  0  0  0  0  0  0  0
    0.0000    0.0000    0.0000 H   0  0  0  0  0  0  0  0  0  0  0  0
    0.0000    0.0000    0.0000 H   0  0  0  0  0  0  0  0  0  0  0  0
  5  4  2  0
  6  4  1  0
  7  5  1  0
  8  6  2  0
 10  9  1  0
 14 11  1  0
 15 12  1  0
 16 13  1  0
 19  1  1  0
 19  2  1  0
 20  3  1  0
 21  7  2  0
 21  8  1  0
 22 11  1  0
 22 12  1  0
 23  9  1  0
 23 17  1  0
 24 10  1  0
 24 18  1  0
 25 17  1  0
 25 18  1  0
 26 13  1  6
 26 21  1  0
 27 19  1  0
 28 22  1  0
 29 14  1  0
 29 15  1  0
 30 29  1  0
 31 29  1  0
 26 32  1  0
 32 28  2  3
 33 20  2  0
 34 27  2  0
 34 33  1  0
 35 16  1  0
 35 23  1  0
 35 24  1  0
 36 20  1  0
 25 36  1  6
 36 27  1  0
 28 37  1  0
  1 38  1  0
  1 39  1  0
  1 40  1  0
  2 41  1  0
  2 42  1  0
  2 43  1  0
  3 44  1  0
  3 45  1  0
  3 46  1  0
  4 47  1  0
  5 48  1  0
  6 49  1  0
  7 50  1  0
  8 51  1  0
  9 52  1  0
  9 53  1  0
 10 54  1  0
 10 55  1  0
 11 56  1  0
 11 57  1  0
 12 58  1  0
 12 59  1  0
 13 60  1  0
 13 61  1  0
 14 62  1  0
 14 63  1  0
 15 64  1  0
 15 65  1  0
 16 66  1  0
 16 67  1  0
 17 68  1  0
 17 69  1  0
 18 70  1  0
 18 71  1  0
 19 72  1  0
 22 73  1  0
 23 74  1  1
 24 75  1  6
 25 76  1  0
 26 77  1  0
 37 78  1  0
M  END
>  <ALOGPS_LOGP>  (1) 
4.39

>  <ALOGPS_LOGS>  (1) 
-4.77

>  <ALOGPS_SOLUBILITY>  (1) 
8.83e-03 g/l

>  <DATABASE_ID>  (1) 
DB04835

>  <DATABASE_NAME>  (1) 
drugbank

>  <DRUGBANK_ID>  (1) 
DB04835

>  <DRUG_GROUPS>  (1) 
approved; investigational

>  <EXACT_MASS>  (1) 
513.327917369

>  <FORMULA>  (1) 
C29H41F2N5O

>  <GENERIC_NAME>  (1) 
Maraviroc

>  <INCHI_IDENTIFIER>  (1) 
InChI=1S/C29H41F2N5O/c1-19(2)27-34-33-20(3)36(27)25-17-23-9-10-24(18-25)35(23)16-13-26(21-7-5-4-6-8-21)32-28(37)22-11-14-29(30,31)15-12-22/h4-8,19,22-26H,9-18H2,1-3H3,(H,32,37)/t23-,24+,25-,26-/m0/s1

>  <INCHI_KEY>  (1) 
GSNHKUDZZFZSJB-QYOOZWMWSA-N

>  <JCHEM_ACCEPTOR_COUNT>  (1) 
5

>  <JCHEM_AVERAGE_POLARIZABILITY>  (1) 
56.83911007557558

>  <JCHEM_BIOAVAILABILITY>  (1) 
1

>  <JCHEM_DONOR_COUNT>  (1) 
1

>  <JCHEM_FORMAL_CHARGE>  (1) 
0

>  <JCHEM_GHOSE_FILTER>  (1) 
0

>  <JCHEM_IUPAC>  (1) 
4,4-difluoro-N-[(1S)-3-[(1R,3S,5S)-3-[3-methyl-5-(propan-2-yl)-4H-1,2,4-triazol-4-yl]-8-azabicyclo[3.2.1]octan-8-yl]-1-phenylpropyl]cyclohexane-1-carboximidic acid

>  <JCHEM_LOGP>  (1) 
1.8930579818726903

>  <JCHEM_MDDR_LIKE_RULE>  (1) 
1

>  <JCHEM_NUMBER_OF_RINGS>  (1) 
5

>  <JCHEM_PHYSIOLOGICAL_CHARGE>  (1) 
2

>  <JCHEM_PKA_STRONGEST_ACIDIC>  (1) 
7.022815859661923

>  <JCHEM_PKA_STRONGEST_BASIC>  (1) 
10.1314440784997

>  <JCHEM_POLAR_SURFACE_AREA>  (1) 
66.54

>  <JCHEM_REFRACTIVITY>  (1) 
143.40249999999997

>  <JCHEM_ROTATABLE_BOND_COUNT>  (1) 
8

>  <JCHEM_RULE_OF_FIVE>  (1) 
0

>  <JCHEM_TRADITIONAL_IUPAC>  (1) 
4,4-difluoro-N-[(1S)-3-[(1R,3S,5S)-3-(3-isopropyl-5-methyl-1,2,4-triazol-4-yl)-8-azabicyclo[3.2.1]octan-8-yl]-1-phenylpropyl]cyclohexane-1-carboximidic acid

>  <JCHEM_VEBER_RULE>  (1) 
0

>  <MOLECULAR_WEIGHT>  (1) 
513.6655

>  <PRODUCTS>  (1) 
Celsentri; Selzentry

>  <SMILES>  (1) 
[H][C@@](CCN1[C@@]2([H])CC[C@]1([H])C[C@]([H])(C2)N1C(C)=NN=C1C(C)C)(N=C(O)C1CCC(F)(F)CC1)C1=CC=CC=C1

$$$$
