
     RDKit          2D

 71 70  0  0  0  0  0  0  0  0999 V2000
   10.8634    5.2584    0.0000 C   0  0  0  0  0  0  0  0  0  0  0  0
   11.5500    5.7158    0.0000 C   0  0  0  0  0  0  0  0  0  0  0  0
   12.2894    5.3499    0.0000 C   0  0  0  0  0  0  0  0  0  0  0  0
   12.9760    5.8072    0.0000 C   0  0  0  0  0  0  0  0  0  0  0  0
   13.7154    5.4413    0.0000 C   0  0  0  0  0  0  0  0  0  0  0  0
   14.4020    5.8987    0.0000 C   0  0  0  0  0  0  0  0  0  0  0  0
   15.1414    5.5328    0.0000 C   0  0  0  0  0  0  0  0  0  0  0  0
   15.8280    5.9902    0.0000 C   0  0  0  0  0  0  0  0  0  0  0  0
   16.5674    5.6243    0.0000 C   0  0  0  0  0  0  0  0  0  0  0  0
   17.2540    6.0817    0.0000 C   0  0  0  0  0  0  0  0  0  0  0  0
   17.9935    5.7158    0.0000 N   0  0  0  0  0  0  0  0  0  0  0  0
   17.6275    4.9764    0.0000 C   0  0  0  0  0  0  0  0  0  0  0  0
   18.3594    6.4552    0.0000 C   0  0  0  0  0  0  0  0  0  0  0  0
   18.7329    5.3499    0.0000 C   0  0  0  0  0  0  0  0  0  0  0  0
   19.4195    5.8072    0.0000 C   0  0  0  0  0  0  0  0  0  0  0  0
   20.1589    5.4413    0.0000 C   0  0  0  0  0  0  0  0  0  0  0  0
   20.8455    5.8987    0.0000 C   0  0  0  0  0  0  0  0  0  0  0  0
   21.5849    5.5328    0.0000 C   0  0  0  0  0  0  0  0  0  0  0  0
   22.2715    5.9902    0.0000 C   0  0  0  0  0  0  0  0  0  0  0  0
   23.0109    5.6243    0.0000 C   0  0  0  0  0  0  0  0  0  0  0  0
   23.6975    6.0817    0.0000 C   0  0  0  0  0  0  0  0  0  0  0  0
   24.4369    5.7158    0.0000 C   0  0  0  0  0  0  0  0  0  0  0  0
   25.1235    6.1732    0.0000 C   0  0  0  0  0  0  0  0  0  0  0  0
    0.0000    0.0000    0.0000 H   0  0  0  0  0  0  0  0  0  0  0  0
    0.0000    0.0000    0.0000 H   0  0  0  0  0  0  0  0  0  0  0  0
    0.0000    0.0000    0.0000 H   0  0  0  0  0  0  0  0  0  0  0  0
    0.0000    0.0000    0.0000 H   0  0  0  0  0  0  0  0  0  0  0  0
    0.0000    0.0000    0.0000 H   0  0  0  0  0  0  0  0  0  0  0  0
    0.0000    0.0000    0.0000 H   0  0  0  0  0  0  0  0  0  0  0  0
    0.0000    0.0000    0.0000 H   0  0  0  0  0  0  0  0  0  0  0  0
    0.0000    0.0000    0.0000 H   0  0  0  0  0  0  0  0  0  0  0  0
    0.0000    0.0000    0.0000 H   0  0  0  0  0  0  0  0  0  0  0  0
    0.0000    0.0000    0.0000 H   0  0  0  0  0  0  0  0  0  0  0  0
    0.0000    0.0000    0.0000 H   0  0  0  0  0  0  0  0  0  0  0  0
    0.0000    0.0000    0.0000 H   0  0  0  0  0  0  0  0  0  0  0  0
    0.0000    0.0000    0.0000 H   0  0  0  0  0  0  0  0  0  0  0  0
    0.0000    0.0000    0.0000 H   0  0  0  0  0  0  0  0  0  0  0  0
    0.0000    0.0000    0.0000 H   0  0  0  0  0  0  0  0  0  0  0  0
    0.0000    0.0000    0.0000 H   0  0  0  0  0  0  0  0  0  0  0  0
    0.0000    0.0000    0.0000 H   0  0  0  0  0  0  0  0  0  0  0  0
    0.0000    0.0000    0.0000 H   0  0  0  0  0  0  0  0  0  0  0  0
    0.0000    0.0000    0.0000 H   0  0  0  0  0  0  0  0  0  0  0  0
    0.0000    0.0000    0.0000 H   0  0  0  0  0  0  0  0  0  0  0  0
    0.0000    0.0000    0.0000 H   0  0  0  0  0  0  0  0  0  0  0  0
    0.0000    0.0000    0.0000 H   0  0  0  0  0  0  0  0  0  0  0  0
    0.0000    0.0000    0.0000 H   0  0  0  0  0  0  0  0  0  0  0  0
    0.0000    0.0000    0.0000 H   0  0  0  0  0  0  0  0  0  0  0  0
    0.0000    0.0000    0.0000 H   0  0  0  0  0  0  0  0  0  0  0  0
    0.0000    0.0000    0.0000 H   0  0  0  0  0  0  0  0  0  0  0  0
    0.0000    0.0000    0.0000 H   0  0  0  0  0  0  0  0  0  0  0  0
    0.0000    0.0000    0.0000 H   0  0  0  0  0  0  0  0  0  0  0  0
    0.0000    0.0000    0.0000 H   0  0  0  0  0  0  0  0  0  0  0  0
    0.0000    0.0000    0.0000 H   0  0  0  0  0  0  0  0  0  0  0  0
    0.0000    0.0000    0.0000 H   0  0  0  0  0  0  0  0  0  0  0  0
    0.0000    0.0000    0.0000 H   0  0  0  0  0  0  0  0  0  0  0  0
    0.0000    0.0000    0.0000 H   0  0  0  0  0  0  0  0  0  0  0  0
    0.0000    0.0000    0.0000 H   0  0  0  0  0  0  0  0  0  0  0  0
    0.0000    0.0000    0.0000 H   0  0  0  0  0  0  0  0  0  0  0  0
    0.0000    0.0000    0.0000 H   0  0  0  0  0  0  0  0  0  0  0  0
    0.0000    0.0000    0.0000 H   0  0  0  0  0  0  0  0  0  0  0  0
    0.0000    0.0000    0.0000 H   0  0  0  0  0  0  0  0  0  0  0  0
    0.0000    0.0000    0.0000 H   0  0  0  0  0  0  0  0  0  0  0  0
    0.0000    0.0000    0.0000 H   0  0  0  0  0  0  0  0  0  0  0  0
    0.0000    0.0000    0.0000 H   0  0  0  0  0  0  0  0  0  0  0  0
    0.0000    0.0000    0.0000 H   0  0  0  0  0  0  0  0  0  0  0  0
    0.0000    0.0000    0.0000 H   0  0  0  0  0  0  0  0  0  0  0  0
    0.0000    0.0000    0.0000 H   0  0  0  0  0  0  0  0  0  0  0  0
    0.0000    0.0000    0.0000 H   0  0  0  0  0  0  0  0  0  0  0  0
    0.0000    0.0000    0.0000 H   0  0  0  0  0  0  0  0  0  0  0  0
    0.0000    0.0000    0.0000 H   0  0  0  0  0  0  0  0  0  0  0  0
    0.0000    0.0000    0.0000 H   0  0  0  0  0  0  0  0  0  0  0  0
  1  2  1  0
  2  3  1  0
  3  4  1  0
  4  5  1  0
  5  6  1  0
  6  7  1  0
  7  8  1  0
  8  9  1  0
  9 10  1  0
 10 11  1  0
 11 12  1  0
 11 13  1  0
 11 14  1  0
 14 15  1  0
 15 16  1  0
 16 17  1  0
 17 18  1  0
 18 19  1  0
 19 20  1  0
 20 21  1  0
 21 22  1  0
 22 23  1  0
  1 24  1  0
  1 25  1  0
  1 26  1  0
  2 27  1  0
  2 28  1  0
  3 29  1  0
  3 30  1  0
  4 31  1  0
  4 32  1  0
  5 33  1  0
  5 34  1  0
  6 35  1  0
  6 36  1  0
  7 37  1  0
  7 38  1  0
  8 39  1  0
  8 40  1  0
  9 41  1  0
  9 42  1  0
 10 43  1  0
 10 44  1  0
 12 45  1  0
 12 46  1  0
 12 47  1  0
 13 48  1  0
 13 49  1  0
 13 50  1  0
 14 51  1  0
 14 52  1  0
 15 53  1  0
 15 54  1  0
 16 55  1  0
 16 56  1  0
 17 57  1  0
 17 58  1  0
 18 59  1  0
 18 60  1  0
 19 61  1  0
 19 62  1  0
 20 63  1  0
 20 64  1  0
 21 65  1  0
 21 66  1  0
 22 67  1  0
 22 68  1  0
 23 69  1  0
 23 70  1  0
 23 71  1  0
M  CHG  1  11   1
M  END
>  <ALOGPS_LOGP>  (1) 
4.54

>  <ALOGPS_LOGS>  (1) 
-7.97

>  <ALOGPS_SOLUBILITY>  (1) 
3.91e-06 g/l

>  <DATABASE_ID>  (1) 
DB04221

>  <DATABASE_NAME>  (1) 
drugbank

>  <DRUGBANK_ID>  (1) 
DB04221

>  <DRUG_GROUPS>  (1) 
approved; experimental

>  <EXACT_MASS>  (1) 
326.378675541

>  <FORMULA>  (1) 
C22H48N

>  <GENERIC_NAME>  (1) 
Didecyldimethylammonium

>  <INCHI_IDENTIFIER>  (1) 
InChI=1S/C22H48N/c1-5-7-9-11-13-15-17-19-21-23(3,4)22-20-18-16-14-12-10-8-6-2/h5-22H2,1-4H3/q+1

>  <INCHI_KEY>  (1) 
JGFDZZLUDWMUQH-UHFFFAOYSA-N

>  <JCHEM_ACCEPTOR_COUNT>  (1) 
0

>  <JCHEM_AVERAGE_POLARIZABILITY>  (1) 
47.154748088092624

>  <JCHEM_BIOAVAILABILITY>  (1) 
1

>  <JCHEM_DONOR_COUNT>  (1) 
0

>  <JCHEM_FORMAL_CHARGE>  (1) 
1

>  <JCHEM_GHOSE_FILTER>  (1) 
0

>  <JCHEM_IUPAC>  (1) 
bis(decyl)dimethylazanium

>  <JCHEM_LOGP>  (1) 
4.010454858528254

>  <JCHEM_MDDR_LIKE_RULE>  (1) 
0

>  <JCHEM_NUMBER_OF_RINGS>  (1) 
0

>  <JCHEM_PHYSIOLOGICAL_CHARGE>  (1) 
1

>  <JCHEM_POLAR_SURFACE_AREA>  (1) 
0

>  <JCHEM_REFRACTIVITY>  (1) 
118.86089999999997

>  <JCHEM_ROTATABLE_BOND_COUNT>  (1) 
18

>  <JCHEM_RULE_OF_FIVE>  (1) 
1

>  <JCHEM_TRADITIONAL_IUPAC>  (1) 
didecyl-dimethyl-ammonium

>  <JCHEM_VEBER_RULE>  (1) 
0

>  <MOLECULAR_WEIGHT>  (1) 
326.6232

>  <PRODUCTS>  (1) 
Bioprep; Bioprep Liq; Septi-san; Shunfa Anti-Bacteria Spra; Soft Care Antiseptic Hand Soap

>  <SALTS>  (1) 
Didecyldimethylammonium chloride

>  <SECONDARY_ACCESSION_NUMBERS>  (1) 
EXPT00009; DB11287

>  <SMILES>  (1) 
CCCCCCCCCC[N+](C)(C)CCCCCCCCCC

>  <SYNONYMS>  (1) 
Didecyl-dimethyl-ammonium; Didecyldimethylammonium cation; Didecyldimethylammonium ion; Didecyldimonium

$$$$
