
     RDKit          2D

 52 54  0  0  1  0  0  0  0  0999 V2000
    4.5080   -4.8717    0.0000 Cl  0  0  0  0  0  0  0  0  0  0  0  0
    3.7935   -1.1592    0.0000 O   0  0  0  0  0  0  0  0  0  0  0  0
    2.3645    4.6160    0.0000 O   0  0  0  0  0  0  0  0  0  0  0  0
    1.6500    3.3784    0.0000 O   0  0  0  0  0  0  0  0  0  0  0  0
    3.7935    1.3159    0.0000 N   0  0  0  0  0  0  0  0  0  0  0  0
    5.2224   -0.3341    0.0000 N   0  0  0  0  0  0  0  0  0  0  0  0
    3.7935   -0.3341    0.0000 C   0  0  0  0  0  0  0  0  0  0  0  0
    3.0791    0.0784    0.0000 C   0  0  0  0  0  0  0  0  0  0  0  0
    4.5080    0.0784    0.0000 C   0  0  0  0  0  0  0  0  0  0  0  0
    3.0791    0.9034    0.0000 C   0  0  0  0  0  0  0  0  0  0  0  0
    4.5080    0.9034    0.0000 C   0  0  0  0  0  0  0  0  0  0  0  0
    3.7935    2.1409    0.0000 C   0  0  0  0  0  0  0  0  0  0  0  0
    3.0791    2.5534    0.0000 C   0  0  0  0  0  0  0  0  0  0  0  0
    4.5080   -1.5717    0.0000 C   0  0  0  0  0  0  0  0  0  0  0  0
    3.0791    3.3784    0.0000 C   0  0  0  0  0  0  0  0  0  0  0  0
    4.5080   -2.3967    0.0000 C   0  0  0  0  0  0  0  0  0  0  0  0
    5.2224   -1.1592    0.0000 C   0  0  0  0  0  0  0  0  0  0  0  0
    5.2224   -2.8092    0.0000 C   0  0  0  0  0  0  0  0  0  0  0  0
    3.7935   -2.8092    0.0000 C   0  0  0  0  0  0  0  0  0  0  0  0
    2.3645    3.7910    0.0000 C   0  0  0  0  0  0  0  0  0  0  0  0
    5.9370   -1.5717    0.0000 C   0  0  0  0  0  0  0  0  0  0  0  0
    5.2224   -3.6342    0.0000 C   0  0  0  0  0  0  0  0  0  0  0  0
    3.7935   -3.6342    0.0000 C   0  0  0  0  0  0  0  0  0  0  0  0
    6.6515   -1.1592    0.0000 C   0  0  0  0  0  0  0  0  0  0  0  0
    4.5080   -4.0467    0.0000 C   0  0  0  0  0  0  0  0  0  0  0  0
    5.9370    0.0784    0.0000 C   0  0  0  0  0  0  0  0  0  0  0  0
    6.6515   -0.3341    0.0000 C   0  0  0  0  0  0  0  0  0  0  0  0
    0.0000    0.0000    0.0000 H   0  0  0  0  0  0  0  0  0  0  0  0
    0.0000    0.0000    0.0000 H   0  0  0  0  0  0  0  0  0  0  0  0
    0.0000    0.0000    0.0000 H   0  0  0  0  0  0  0  0  0  0  0  0
    0.0000    0.0000    0.0000 H   0  0  0  0  0  0  0  0  0  0  0  0
    0.0000    0.0000    0.0000 H   0  0  0  0  0  0  0  0  0  0  0  0
    0.0000    0.0000    0.0000 H   0  0  0  0  0  0  0  0  0  0  0  0
    0.0000    0.0000    0.0000 H   0  0  0  0  0  0  0  0  0  0  0  0
    0.0000    0.0000    0.0000 H   0  0  0  0  0  0  0  0  0  0  0  0
    0.0000    0.0000    0.0000 H   0  0  0  0  0  0  0  0  0  0  0  0
    0.0000    0.0000    0.0000 H   0  0  0  0  0  0  0  0  0  0  0  0
    0.0000    0.0000    0.0000 H   0  0  0  0  0  0  0  0  0  0  0  0
    0.0000    0.0000    0.0000 H   0  0  0  0  0  0  0  0  0  0  0  0
    0.0000    0.0000    0.0000 H   0  0  0  0  0  0  0  0  0  0  0  0
    0.0000    0.0000    0.0000 H   0  0  0  0  0  0  0  0  0  0  0  0
    0.0000    0.0000    0.0000 H   0  0  0  0  0  0  0  0  0  0  0  0
    0.0000    0.0000    0.0000 H   0  0  0  0  0  0  0  0  0  0  0  0
    0.0000    0.0000    0.0000 H   0  0  0  0  0  0  0  0  0  0  0  0
    0.0000    0.0000    0.0000 H   0  0  0  0  0  0  0  0  0  0  0  0
    0.0000    0.0000    0.0000 H   0  0  0  0  0  0  0  0  0  0  0  0
    0.0000    0.0000    0.0000 H   0  0  0  0  0  0  0  0  0  0  0  0
    0.0000    0.0000    0.0000 H   0  0  0  0  0  0  0  0  0  0  0  0
    0.0000    0.0000    0.0000 H   0  0  0  0  0  0  0  0  0  0  0  0
    0.0000    0.0000    0.0000 H   0  0  0  0  0  0  0  0  0  0  0  0
    0.0000    0.0000    0.0000 H   0  0  0  0  0  0  0  0  0  0  0  0
    0.0000    0.0000    0.0000 H   0  0  0  0  0  0  0  0  0  0  0  0
  1 25  1  0
  2  7  1  0
  2 14  1  0
  3 20  1  0
  4 20  2  0
  5 10  1  0
  5 11  1  0
  5 12  1  0
  6 17  2  0
  6 26  1  0
  7  8  1  0
  7  9  1  0
  8 10  1  0
  9 11  1  0
 12 13  1  0
 13 15  1  0
 14 16  1  0
 14 17  1  0
 15 20  1  0
 16 18  2  0
 16 19  1  0
 17 21  1  0
 18 22  1  0
 19 23  2  0
 21 24  2  0
 22 25  2  0
 23 25  1  0
 24 27  1  0
 26 27  2  0
  3 28  1  0
  7 29  1  0
  8 30  1  0
  8 31  1  0
  9 32  1  0
  9 33  1  0
 10 34  1  0
 10 35  1  0
 11 36  1  0
 11 37  1  0
 12 38  1  0
 12 39  1  0
 13 40  1  0
 13 41  1  0
 14 42  1  0
 15 43  1  0
 15 44  1  0
 18 45  1  0
 19 46  1  0
 21 47  1  0
 22 48  1  0
 23 49  1  0
 24 50  1  0
 26 51  1  0
 27 52  1  0
M  END
>  <ALOGPS_LOGP>  (1) 
3.64

>  <ALOGPS_LOGS>  (1) 
-3.89

>  <ALOGPS_SOLUBILITY>  (1) 
5.03e-02 g/l

>  <DATABASE_ID>  (1) 
DB04890

>  <DATABASE_NAME>  (1) 
drugbank

>  <DRUGBANK_ID>  (1) 
DB04890

>  <DRUG_GROUPS>  (1) 
approved

>  <EXACT_MASS>  (1) 
388.155370383

>  <FORMULA>  (1) 
C21H25ClN2O3

>  <GENERIC_NAME>  (1) 
Bepotastine

>  <INCHI_IDENTIFIER>  (1) 
InChI=1S/C21H25ClN2O3/c22-17-8-6-16(7-9-17)21(19-4-1-2-12-23-19)27-18-10-14-24(15-11-18)13-3-5-20(25)26/h1-2,4,6-9,12,18,21H,3,5,10-11,13-15H2,(H,25,26)

>  <INCHI_KEY>  (1) 
YWGDOWXRIALTES-UHFFFAOYSA-N

>  <JCHEM_ACCEPTOR_COUNT>  (1) 
5

>  <JCHEM_AVERAGE_POLARIZABILITY>  (1) 
42.18390586888624

>  <JCHEM_BIOAVAILABILITY>  (1) 
1

>  <JCHEM_DONOR_COUNT>  (1) 
1

>  <JCHEM_FORMAL_CHARGE>  (1) 
0

>  <JCHEM_GHOSE_FILTER>  (1) 
1

>  <JCHEM_IUPAC>  (1) 
4-{4-[(4-chlorophenyl)(pyridin-2-yl)methoxy]piperidin-1-yl}butanoic acid

>  <JCHEM_LOGP>  (1) 
0.5525555341959515

>  <JCHEM_MDDR_LIKE_RULE>  (1) 
1

>  <JCHEM_NUMBER_OF_RINGS>  (1) 
3

>  <JCHEM_PHYSIOLOGICAL_CHARGE>  (1) 
0

>  <JCHEM_PKA_STRONGEST_ACIDIC>  (1) 
4.101605229301745

>  <JCHEM_PKA_STRONGEST_BASIC>  (1) 
9.390604878985322

>  <JCHEM_POLAR_SURFACE_AREA>  (1) 
62.660000000000004

>  <JCHEM_REFRACTIVITY>  (1) 
105.09880000000003

>  <JCHEM_ROTATABLE_BOND_COUNT>  (1) 
8

>  <JCHEM_RULE_OF_FIVE>  (1) 
1

>  <JCHEM_TRADITIONAL_IUPAC>  (1) 
talion

>  <JCHEM_VEBER_RULE>  (1) 
0

>  <MOLECULAR_WEIGHT>  (1) 
388.888

>  <PRODUCTS>  (1) 
Bepreve

>  <SALTS>  (1) 
Bepotastine Besilate

>  <SMILES>  (1) 
OC(=O)CCCN1CCC(CC1)OC(C1=CC=C(Cl)C=C1)C1=CC=CC=N1

$$$$
