4815
     RDKit          2D

 18 19  0  0  0  0  0  0  0  0999 V2000
    1.6498   -0.6970    0.0000 I   0  0  0  0  0  0  0  0  0  0  0  0
    3.0786    1.7777    0.0000 Cl  0  0  0  0  0  0  0  0  0  0  0  0
    3.0786   -1.5219    0.0000 O   0  0  0  0  0  0  0  0  0  0  0  0
    4.5303   -0.7257    0.0000 N   0  0  0  0  0  0  0  0  0  0  0  0
    3.7929    0.5403    0.0000 C   0  0  0  0  0  0  0  0  0  0  0  0
    3.7929   -0.2846    0.0000 C   0  0  0  0  0  0  0  0  0  0  0  0
    3.0786   -0.6970    0.0000 C   0  0  0  0  0  0  0  0  0  0  0  0
    3.0786    0.9528    0.0000 C   0  0  0  0  0  0  0  0  0  0  0  0
    4.5303    0.9814    0.0000 C   0  0  0  0  0  0  0  0  0  0  0  0
    2.3641   -0.2846    0.0000 C   0  0  0  0  0  0  0  0  0  0  0  0
    2.3641    0.5403    0.0000 C   0  0  0  0  0  0  0  0  0  0  0  0
    5.2777    0.5574    0.0000 C   0  0  0  0  0  0  0  0  0  0  0  0
    5.2777   -0.3018    0.0000 C   0  0  0  0  0  0  0  0  0  0  0  0
    0.0000    0.0000    0.0000 H   0  0  0  0  0  0  0  0  0  0  0  0
    0.0000    0.0000    0.0000 H   0  0  0  0  0  0  0  0  0  0  0  0
    0.0000    0.0000    0.0000 H   0  0  0  0  0  0  0  0  0  0  0  0
    0.0000    0.0000    0.0000 H   0  0  0  0  0  0  0  0  0  0  0  0
    0.0000    0.0000    0.0000 H   0  0  0  0  0  0  0  0  0  0  0  0
  1 10  1  0
  2  8  1  0
  3  7  1  0
  4  6  2  0
  4 13  1  0
  5  6  1  0
  5  8  1  0
  5  9  2  0
  6  7  1  0
  7 10  2  0
  8 11  2  0
  9 12  1  0
 10 11  1  0
 12 13  2  0
  3 14  1  0
  9 15  1  0
 11 16  1  0
 12 17  1  0
 13 18  1  0
M  END
>  <ALOGPS_LOGP>  (1) 
3.66

>  <ALOGPS_LOGS>  (1) 
-3.06

>  <ALOGPS_SOLUBILITY>  (1) 
2.64e-01 g/l

>  <DATABASE_ID>  (1) 
DB04815

>  <DATABASE_NAME>  (1) 
drugbank

>  <DRUGBANK_ID>  (1) 
DB04815

>  <DRUG_GROUPS>  (1) 
approved; vet_approved; withdrawn

>  <EXACT_MASS>  (1) 
304.910434914

>  <FORMULA>  (1) 
C9H5ClINO

>  <GENERIC_NAME>  (1) 
Clioquinol

>  <INCHI_IDENTIFIER>  (1) 
InChI=1S/C9H5ClINO/c10-6-4-7(11)9(13)8-5(6)2-1-3-12-8/h1-4,13H

>  <INCHI_KEY>  (1) 
QCDFBFJGMNKBDO-UHFFFAOYSA-N

>  <JCHEM_ACCEPTOR_COUNT>  (1) 
2

>  <JCHEM_AVERAGE_POLARIZABILITY>  (1) 
22.626794432959755

>  <JCHEM_BIOAVAILABILITY>  (1) 
1

>  <JCHEM_DONOR_COUNT>  (1) 
1

>  <JCHEM_FORMAL_CHARGE>  (1) 
0

>  <JCHEM_GHOSE_FILTER>  (1) 
0

>  <JCHEM_IUPAC>  (1) 
5-chloro-7-iodoquinolin-8-ol

>  <JCHEM_LOGP>  (1) 
3.360324304333333

>  <JCHEM_MDDR_LIKE_RULE>  (1) 
0

>  <JCHEM_NUMBER_OF_RINGS>  (1) 
2

>  <JCHEM_PHYSIOLOGICAL_CHARGE>  (1) 
0

>  <JCHEM_PKA_STRONGEST_ACIDIC>  (1) 
7.337799516151212

>  <JCHEM_PKA_STRONGEST_BASIC>  (1) 
3.2821550903484003

>  <JCHEM_POLAR_SURFACE_AREA>  (1) 
33.120000000000005

>  <JCHEM_REFRACTIVITY>  (1) 
60.127500000000005

>  <JCHEM_ROTATABLE_BOND_COUNT>  (1) 
0

>  <JCHEM_RULE_OF_FIVE>  (1) 
1

>  <JCHEM_TRADITIONAL_IUPAC>  (1) 
clioquinol

>  <JCHEM_VEBER_RULE>  (1) 
1

>  <MOLECULAR_WEIGHT>  (1) 
305.5

>  <PRODUCTS>  (1) 
Ala Quin; Aristoform R Crm 0.1%; Dermoscribe Ichybum; Locacorten Vioform; Locacorten Vioform Eardrops; Neo Vagex; PMS-flumethasone-clioquinol; Phen-oris - Ont Top; Phenoris Ont; Vioform + Hydrocortisone; Vioform 3%; Vioform Hydrocortisone; Vioform Hydrocortisone Mild

>  <SMILES>  (1) 
OC1=C(I)C=C(Cl)C2=C1N=CC=C2

>  <SYNONYMS>  (1) 
5-Chlor-7-jod-8-hydroxy-chinolin; 5-Chloro-7-iodo-8-hydroxyquinoline; 5-Chloro-7-iodo-8-quinolinol; 5-chloro-7-iodoquinolin-8-ol; 5-Chloro-8-hydroxy-7-iodoquinoline; 7-Iodo-5-chloro-8-hydroxyquinoline; 7-Iodo-5-chloroxine; Chloroiodoquin; Clioquinolum; Iodochlorhydroxyquin; Iodochlorhydroxyquinoline; Iodochlorohydroxyquin; Iodochloroxyquinoline

$$$$
