
     RDKit          2D

 29 30  0  0  0  0  0  0  0  0999 V2000
    1.6500   -2.6582    0.0000 F   0  0  0  0  0  0  0  0  0  0  0  0
    2.7770   -2.9602    0.0000 F   0  0  0  0  0  0  0  0  0  0  0  0
    1.9520   -1.5312    0.0000 F   0  0  0  0  0  0  0  0  0  0  0  0
    3.7935    2.7044    0.0000 O   0  0  0  0  0  0  0  0  0  0  0  0
    3.0791    1.4669    0.0000 O   0  0  0  0  0  0  0  0  0  0  0  0
    3.7935    0.2294    0.0000 N   0  0  0  0  0  0  0  0  0  0  0  0
    5.2224    0.2294    0.0000 N   0  0  0  0  0  0  0  0  0  0  0  0
    3.7935   -0.5957    0.0000 C   0  0  0  0  0  0  0  0  0  0  0  0
    3.0791   -1.8332    0.0000 C   0  0  0  0  0  0  0  0  0  0  0  0
    3.0791   -1.0082    0.0000 C   0  0  0  0  0  0  0  0  0  0  0  0
    4.5080    0.6419    0.0000 C   0  0  0  0  0  0  0  0  0  0  0  0
    4.5080   -1.0082    0.0000 C   0  0  0  0  0  0  0  0  0  0  0  0
    3.7935   -2.2457    0.0000 C   0  0  0  0  0  0  0  0  0  0  0  0
    4.5080    1.4669    0.0000 C   0  0  0  0  0  0  0  0  0  0  0  0
    4.5080   -1.8332    0.0000 C   0  0  0  0  0  0  0  0  0  0  0  0
    2.3645   -2.2457    0.0000 C   0  0  0  0  0  0  0  0  0  0  0  0
    5.2224    1.8794    0.0000 C   0  0  0  0  0  0  0  0  0  0  0  0
    5.9370    1.4669    0.0000 C   0  0  0  0  0  0  0  0  0  0  0  0
    5.9370    0.6419    0.0000 C   0  0  0  0  0  0  0  0  0  0  0  0
    3.7935    1.8794    0.0000 C   0  0  0  0  0  0  0  0  0  0  0  0
    0.0000    0.0000    0.0000 H   0  0  0  0  0  0  0  0  0  0  0  0
    0.0000    0.0000    0.0000 H   0  0  0  0  0  0  0  0  0  0  0  0
    0.0000    0.0000    0.0000 H   0  0  0  0  0  0  0  0  0  0  0  0
    0.0000    0.0000    0.0000 H   0  0  0  0  0  0  0  0  0  0  0  0
    0.0000    0.0000    0.0000 H   0  0  0  0  0  0  0  0  0  0  0  0
    0.0000    0.0000    0.0000 H   0  0  0  0  0  0  0  0  0  0  0  0
    0.0000    0.0000    0.0000 H   0  0  0  0  0  0  0  0  0  0  0  0
    0.0000    0.0000    0.0000 H   0  0  0  0  0  0  0  0  0  0  0  0
    0.0000    0.0000    0.0000 H   0  0  0  0  0  0  0  0  0  0  0  0
  1 16  1  0
  2 16  1  0
  3 16  1  0
  4 20  1  0
  5 20  2  0
  6  8  1  0
  6 11  1  0
  7 11  2  0
  7 19  1  0
  8 10  1  0
  8 12  2  0
  9 10  2  0
  9 13  1  0
  9 16  1  0
 11 14  1  0
 12 15  1  0
 13 15  2  0
 14 17  2  0
 14 20  1  0
 17 18  1  0
 18 19  2  0
  4 21  1  0
  6 22  1  0
 10 23  1  0
 12 24  1  0
 13 25  1  0
 15 26  1  0
 17 27  1  0
 18 28  1  0
 19 29  1  0
M  END
>  <ALOGPS_LOGP>  (1) 
4.33

>  <ALOGPS_LOGS>  (1) 
-3.50

>  <ALOGPS_SOLUBILITY>  (1) 
8.83e-02 g/l

>  <DATABASE_ID>  (1) 
DB04552

>  <DATABASE_NAME>  (1) 
drugbank

>  <DRUGBANK_ID>  (1) 
DB04552

>  <DRUG_GROUPS>  (1) 
approved

>  <EXACT_MASS>  (1) 
282.061612157

>  <FORMULA>  (1) 
C13H9F3N2O2

>  <GENERIC_NAME>  (1) 
Niflumic Acid

>  <INCHI_IDENTIFIER>  (1) 
InChI=1S/C13H9F3N2O2/c14-13(15,16)8-3-1-4-9(7-8)18-11-10(12(19)20)5-2-6-17-11/h1-7H,(H,17,18)(H,19,20)

>  <INCHI_KEY>  (1) 
JZFPYUNJRRFVQU-UHFFFAOYSA-N

>  <INTERNATIONAL_BRANDS>  (1) 
Niflam; Niflugel; Nifluril

>  <JCHEM_ACCEPTOR_COUNT>  (1) 
4

>  <JCHEM_AVERAGE_POLARIZABILITY>  (1) 
24.21284042862549

>  <JCHEM_BIOAVAILABILITY>  (1) 
1

>  <JCHEM_DONOR_COUNT>  (1) 
2

>  <JCHEM_FORMAL_CHARGE>  (1) 
0

>  <JCHEM_GHOSE_FILTER>  (1) 
1

>  <JCHEM_IUPAC>  (1) 
2-{[3-(trifluoromethyl)phenyl]amino}pyridine-3-carboxylic acid

>  <JCHEM_LOGP>  (1) 
3.1187293407963845

>  <JCHEM_MDDR_LIKE_RULE>  (1) 
0

>  <JCHEM_NUMBER_OF_RINGS>  (1) 
2

>  <JCHEM_PHYSIOLOGICAL_CHARGE>  (1) 
-1

>  <JCHEM_PKA>  (1) 
16.43812446258043

>  <JCHEM_PKA_STRONGEST_ACIDIC>  (1) 
1.8800512898616795

>  <JCHEM_PKA_STRONGEST_BASIC>  (1) 
5.513157952556721

>  <JCHEM_POLAR_SURFACE_AREA>  (1) 
62.22

>  <JCHEM_REFRACTIVITY>  (1) 
65.9307

>  <JCHEM_ROTATABLE_BOND_COUNT>  (1) 
4

>  <JCHEM_RULE_OF_FIVE>  (1) 
1

>  <JCHEM_TRADITIONAL_IUPAC>  (1) 
niflumic acid

>  <JCHEM_VEBER_RULE>  (1) 
0

>  <MOLECULAR_WEIGHT>  (1) 
282.218

>  <SECONDARY_ACCESSION_NUMBERS>  (1) 
EXPT02331

>  <SMILES>  (1) 
OC(=O)C1=C(NC2=CC=CC(=C2)C(F)(F)F)N=CC=C1

>  <SYNONYMS>  (1) 
Acide niflumique; Acido niflumico; Acidum niflumicum

$$$$
