4838
     RDKit          2D

 44 45  0  0  1  0  0  0  0  0999 V2000
    3.5220    0.6740    0.0000 O   0  0  0  0  0  0  0  0  0  0  0  0
    4.2365   -0.5635    0.0000 O   0  0  0  0  0  0  0  0  0  0  0  0
    2.0930   -0.1510    0.0000 O   0  0  0  0  0  0  0  0  0  0  0  0
    4.9509    2.3241    0.0000 C   0  0  0  0  0  0  0  0  0  0  0  0
    5.6655    1.9116    0.0000 C   0  0  0  0  0  0  0  0  0  0  0  0
    5.6655    1.0865    0.0000 C   0  0  0  0  0  0  0  0  0  0  0  0
    4.2365    1.9116    0.0000 C   0  0  0  0  0  0  0  0  0  0  0  0
    4.2365    1.0865    0.0000 C   0  0  0  0  0  0  0  0  0  0  0  0
    4.9509    0.6740    0.0000 C   0  0  0  0  0  0  0  0  0  0  0  0
    5.3634    3.0385    0.0000 C   0  0  0  0  0  0  0  0  0  0  0  0
    4.5384    3.0385    0.0000 C   0  0  0  0  0  0  0  0  0  0  0  0
    6.3799    0.6740    0.0000 C   0  0  0  0  0  0  0  0  0  0  0  0
    3.5220   -0.1510    0.0000 C   0  0  0  0  0  0  0  0  0  0  0  0
    2.8075   -0.5635    0.0000 C   0  0  0  0  0  0  0  0  0  0  0  0
    2.8075   -1.3885    0.0000 C   0  0  0  0  0  0  0  0  0  0  0  0
    2.0930   -1.8010    0.0000 C   0  0  0  0  0  0  0  0  0  0  0  0
    3.5220   -1.8010    0.0000 C   0  0  0  0  0  0  0  0  0  0  0  0
    2.0930   -2.6260    0.0000 C   0  0  0  0  0  0  0  0  0  0  0  0
    3.5220   -2.6260    0.0000 C   0  0  0  0  0  0  0  0  0  0  0  0
    2.8075   -3.0385    0.0000 C   0  0  0  0  0  0  0  0  0  0  0  0
    0.0000    0.0000    0.0000 H   0  0  0  0  0  0  0  0  0  0  0  0
    0.0000    0.0000    0.0000 H   0  0  0  0  0  0  0  0  0  0  0  0
    0.0000    0.0000    0.0000 H   0  0  0  0  0  0  0  0  0  0  0  0
    0.0000    0.0000    0.0000 H   0  0  0  0  0  0  0  0  0  0  0  0
    0.0000    0.0000    0.0000 H   0  0  0  0  0  0  0  0  0  0  0  0
    0.0000    0.0000    0.0000 H   0  0  0  0  0  0  0  0  0  0  0  0
    0.0000    0.0000    0.0000 H   0  0  0  0  0  0  0  0  0  0  0  0
    0.0000    0.0000    0.0000 H   0  0  0  0  0  0  0  0  0  0  0  0
    0.0000    0.0000    0.0000 H   0  0  0  0  0  0  0  0  0  0  0  0
    0.0000    0.0000    0.0000 H   0  0  0  0  0  0  0  0  0  0  0  0
    0.0000    0.0000    0.0000 H   0  0  0  0  0  0  0  0  0  0  0  0
    0.0000    0.0000    0.0000 H   0  0  0  0  0  0  0  0  0  0  0  0
    0.0000    0.0000    0.0000 H   0  0  0  0  0  0  0  0  0  0  0  0
    0.0000    0.0000    0.0000 H   0  0  0  0  0  0  0  0  0  0  0  0
    0.0000    0.0000    0.0000 H   0  0  0  0  0  0  0  0  0  0  0  0
    0.0000    0.0000    0.0000 H   0  0  0  0  0  0  0  0  0  0  0  0
    0.0000    0.0000    0.0000 H   0  0  0  0  0  0  0  0  0  0  0  0
    0.0000    0.0000    0.0000 H   0  0  0  0  0  0  0  0  0  0  0  0
    0.0000    0.0000    0.0000 H   0  0  0  0  0  0  0  0  0  0  0  0
    0.0000    0.0000    0.0000 H   0  0  0  0  0  0  0  0  0  0  0  0
    0.0000    0.0000    0.0000 H   0  0  0  0  0  0  0  0  0  0  0  0
    0.0000    0.0000    0.0000 H   0  0  0  0  0  0  0  0  0  0  0  0
    0.0000    0.0000    0.0000 H   0  0  0  0  0  0  0  0  0  0  0  0
    0.0000    0.0000    0.0000 H   0  0  0  0  0  0  0  0  0  0  0  0
  1  8  1  0
  1 13  1  0
  2 13  2  0
  3 14  1  0
  4  5  1  0
  4  7  1  0
  4 10  1  0
  4 11  1  0
  5  6  1  0
  6  9  1  0
  6 12  1  0
  7  8  1  0
  8  9  1  0
 13 14  1  0
 14 15  1  0
 15 16  2  0
 15 17  1  0
 16 18  1  0
 17 19  2  0
 18 20  2  0
 19 20  1  0
  3 21  1  0
  5 22  1  0
  5 23  1  0
  6 24  1  0
  7 25  1  0
  7 26  1  0
  8 27  1  0
  9 28  1  0
  9 29  1  0
 10 30  1  0
 10 31  1  0
 10 32  1  0
 11 33  1  0
 11 34  1  0
 11 35  1  0
 12 36  1  0
 12 37  1  0
 12 38  1  0
 14 39  1  0
 16 40  1  0
 17 41  1  0
 18 42  1  0
 19 43  1  0
 20 44  1  0
M  END
>  <ALOGPS_LOGP>  (1) 
3.79

>  <ALOGPS_LOGS>  (1) 
-3.44

>  <ALOGPS_SOLUBILITY>  (1) 
9.97e-02 g/l

>  <DATABASE_ID>  (1) 
DB04838

>  <DATABASE_NAME>  (1) 
drugbank

>  <DRUGBANK_ID>  (1) 
DB04838

>  <DRUG_GROUPS>  (1) 
approved

>  <EXACT_MASS>  (1) 
276.172544634

>  <FORMULA>  (1) 
C17H24O3

>  <GENERIC_NAME>  (1) 
Cyclandelate

>  <INCHI_IDENTIFIER>  (1) 
InChI=1S/C17H24O3/c1-12-9-14(11-17(2,3)10-12)20-16(19)15(18)13-7-5-4-6-8-13/h4-8,12,14-15,18H,9-11H2,1-3H3

>  <INCHI_KEY>  (1) 
WZHCOOQXZCIUNC-UHFFFAOYSA-N

>  <INTERNATIONAL_BRANDS>  (1) 
Capilan; Cyclergine; Cyclospasmol

>  <JCHEM_ACCEPTOR_COUNT>  (1) 
2

>  <JCHEM_AVERAGE_POLARIZABILITY>  (1) 
30.948679403548063

>  <JCHEM_BIOAVAILABILITY>  (1) 
1

>  <JCHEM_DONOR_COUNT>  (1) 
1

>  <JCHEM_FORMAL_CHARGE>  (1) 
0

>  <JCHEM_GHOSE_FILTER>  (1) 
1

>  <JCHEM_IUPAC>  (1) 
3,3,5-trimethylcyclohexyl 2-hydroxy-2-phenylacetate

>  <JCHEM_LOGP>  (1) 
3.715085545

>  <JCHEM_MDDR_LIKE_RULE>  (1) 
0

>  <JCHEM_NUMBER_OF_RINGS>  (1) 
2

>  <JCHEM_PHYSIOLOGICAL_CHARGE>  (1) 
0

>  <JCHEM_PKA_STRONGEST_ACIDIC>  (1) 
11.991099938529693

>  <JCHEM_PKA_STRONGEST_BASIC>  (1) 
-4.1148928868871115

>  <JCHEM_POLAR_SURFACE_AREA>  (1) 
46.53

>  <JCHEM_REFRACTIVITY>  (1) 
78.05940000000001

>  <JCHEM_ROTATABLE_BOND_COUNT>  (1) 
4

>  <JCHEM_RULE_OF_FIVE>  (1) 
1

>  <JCHEM_TRADITIONAL_IUPAC>  (1) 
cyclandelate

>  <JCHEM_VEBER_RULE>  (1) 
0

>  <MOLECULAR_WEIGHT>  (1) 
276.3707

>  <PRODUCTS>  (1) 
Cyclospasmol Tablets 200mg

>  <SMILES>  (1) 
CC1CC(CC(C)(C)C1)OC(=O)C(O)C1=CC=CC=C1

>  <SYNONYMS>  (1) 
3,3,5-Trimethylcyclohexyl mandelate; 3,5,5-Trimethylcyclohexyl amygdalate; Ciclandelato; Cyclandelatum

$$$$
