
     RDKit          2D

 48 49  0  0  0  0  0  0  0  0999 V2000
    5.2224    2.8876    0.0000 I   0  0  0  0  0  0  0  0  0  0  0  0
    2.3645   -2.8876    0.0000 I   0  0  0  0  0  0  0  0  0  0  0  0
    8.0804    2.8876    0.0000 I   0  0  0  0  0  0  0  0  0  0  0  0
    5.2224   -2.8876    0.0000 I   0  0  0  0  0  0  0  0  0  0  0  0
    6.6515    5.3626    0.0000 I   0  0  0  0  0  0  0  0  0  0  0  0
    3.7935   -5.3626    0.0000 I   0  0  0  0  0  0  0  0  0  0  0  0
    5.2224    2.0625    0.0000 O   0  0  0  0  0  0  0  0  0  0  0  0
    5.2224   -2.0625    0.0000 O   0  0  0  0  0  0  0  0  0  0  0  0
    5.2224    5.3626    0.0000 O   0  0  0  0  0  0  0  0  0  0  0  0
    2.3645   -5.3626    0.0000 O   0  0  0  0  0  0  0  0  0  0  0  0
    4.5080    4.1251    0.0000 O   0  0  0  0  0  0  0  0  0  0  0  0
    1.6500   -4.1251    0.0000 O   0  0  0  0  0  0  0  0  0  0  0  0
    6.6515    2.0625    0.0000 N   0  0  0  0  0  0  0  0  0  0  0  0
    3.7935   -2.0625    0.0000 N   0  0  0  0  0  0  0  0  0  0  0  0
    5.2224    0.4125    0.0000 C   0  0  0  0  0  0  0  0  0  0  0  0
    5.2224   -0.4125    0.0000 C   0  0  0  0  0  0  0  0  0  0  0  0
    5.9370    0.8250    0.0000 C   0  0  0  0  0  0  0  0  0  0  0  0
    4.5080   -0.8250    0.0000 C   0  0  0  0  0  0  0  0  0  0  0  0
    5.9370    1.6500    0.0000 C   0  0  0  0  0  0  0  0  0  0  0  0
    4.5080   -1.6500    0.0000 C   0  0  0  0  0  0  0  0  0  0  0  0
    6.6515    2.8876    0.0000 C   0  0  0  0  0  0  0  0  0  0  0  0
    3.7935   -2.8876    0.0000 C   0  0  0  0  0  0  0  0  0  0  0  0
    5.9370    3.3001    0.0000 C   0  0  0  0  0  0  0  0  0  0  0  0
    3.0791   -3.3001    0.0000 C   0  0  0  0  0  0  0  0  0  0  0  0
    7.3659    3.3001    0.0000 C   0  0  0  0  0  0  0  0  0  0  0  0
    4.5080   -3.3001    0.0000 C   0  0  0  0  0  0  0  0  0  0  0  0
    5.9370    4.1251    0.0000 C   0  0  0  0  0  0  0  0  0  0  0  0
    3.0791   -4.1251    0.0000 C   0  0  0  0  0  0  0  0  0  0  0  0
    7.3659    4.1251    0.0000 C   0  0  0  0  0  0  0  0  0  0  0  0
    4.5080   -4.1251    0.0000 C   0  0  0  0  0  0  0  0  0  0  0  0
    6.6515    4.5376    0.0000 C   0  0  0  0  0  0  0  0  0  0  0  0
    3.7935   -4.5376    0.0000 C   0  0  0  0  0  0  0  0  0  0  0  0
    5.2224    4.5376    0.0000 C   0  0  0  0  0  0  0  0  0  0  0  0
    2.3645   -4.5376    0.0000 C   0  0  0  0  0  0  0  0  0  0  0  0
    0.0000    0.0000    0.0000 H   0  0  0  0  0  0  0  0  0  0  0  0
    0.0000    0.0000    0.0000 H   0  0  0  0  0  0  0  0  0  0  0  0
    0.0000    0.0000    0.0000 H   0  0  0  0  0  0  0  0  0  0  0  0
    0.0000    0.0000    0.0000 H   0  0  0  0  0  0  0  0  0  0  0  0
    0.0000    0.0000    0.0000 H   0  0  0  0  0  0  0  0  0  0  0  0
    0.0000    0.0000    0.0000 H   0  0  0  0  0  0  0  0  0  0  0  0
    0.0000    0.0000    0.0000 H   0  0  0  0  0  0  0  0  0  0  0  0
    0.0000    0.0000    0.0000 H   0  0  0  0  0  0  0  0  0  0  0  0
    0.0000    0.0000    0.0000 H   0  0  0  0  0  0  0  0  0  0  0  0
    0.0000    0.0000    0.0000 H   0  0  0  0  0  0  0  0  0  0  0  0
    0.0000    0.0000    0.0000 H   0  0  0  0  0  0  0  0  0  0  0  0
    0.0000    0.0000    0.0000 H   0  0  0  0  0  0  0  0  0  0  0  0
    0.0000    0.0000    0.0000 H   0  0  0  0  0  0  0  0  0  0  0  0
    0.0000    0.0000    0.0000 H   0  0  0  0  0  0  0  0  0  0  0  0
  1 23  1  0
  2 24  1  0
  3 25  1  0
  4 26  1  0
  5 31  1  0
  6 32  1  0
  7 19  2  0
  8 20  2  0
  9 33  1  0
 10 34  1  0
 11 33  2  0
 12 34  2  0
 13 19  1  0
 13 21  1  0
 14 20  1  0
 14 22  1  0
 15 16  1  0
 15 17  1  0
 16 18  1  0
 17 19  1  0
 18 20  1  0
 21 23  2  0
 21 25  1  0
 22 24  2  0
 22 26  1  0
 23 27  1  0
 24 28  1  0
 25 29  2  0
 26 30  2  0
 27 31  2  0
 27 33  1  0
 28 32  2  0
 28 34  1  0
 29 31  1  0
 30 32  1  0
  9 35  1  0
 10 36  1  0
 13 37  1  0
 14 38  1  0
 15 39  1  0
 15 40  1  0
 16 41  1  0
 16 42  1  0
 17 43  1  0
 17 44  1  0
 18 45  1  0
 18 46  1  0
 29 47  1  0
 30 48  1  0
M  END
>  <ALOGPS_LOGP>  (1) 
3.42

>  <ALOGPS_LOGS>  (1) 
-5.57

>  <ALOGPS_SOLUBILITY>  (1) 
3.06e-03 g/l

>  <DATABASE_ID>  (1) 
DB04711

>  <DATABASE_NAME>  (1) 
drugbank

>  <DRUGBANK_ID>  (1) 
DB04711

>  <DRUG_GROUPS>  (1) 
approved

>  <EXACT_MASS>  (1) 
1139.51199671

>  <FORMULA>  (1) 
C20H14I6N2O6

>  <GENERIC_NAME>  (1) 
Iodipamide

>  <INCHI_IDENTIFIER>  (1) 
InChI=1S/C20H14I6N2O6/c21-7-5-9(23)17(15(25)13(7)19(31)32)27-11(29)3-1-2-4-12(30)28-18-10(24)6-8(22)14(16(18)26)20(33)34/h5-6H,1-4H2,(H,27,29)(H,28,30)(H,31,32)(H,33,34)

>  <INCHI_KEY>  (1) 
FFINMCNLQNTKLU-UHFFFAOYSA-N

>  <INTERNATIONAL_BRANDS>  (1) 
Biligrafin

>  <JCHEM_ACCEPTOR_COUNT>  (1) 
6

>  <JCHEM_AVERAGE_POLARIZABILITY>  (1) 
69.71382938603298

>  <JCHEM_BIOAVAILABILITY>  (1) 
0

>  <JCHEM_DONOR_COUNT>  (1) 
4

>  <JCHEM_FORMAL_CHARGE>  (1) 
0

>  <JCHEM_GHOSE_FILTER>  (1) 
0

>  <JCHEM_IUPAC>  (1) 
3-{5-[(3-carboxy-2,4,6-triiodophenyl)carbamoyl]pentanamido}-2,4,6-triiodobenzoic acid

>  <JCHEM_LOGP>  (1) 
8.248090844

>  <JCHEM_MDDR_LIKE_RULE>  (1) 
0

>  <JCHEM_NUMBER_OF_RINGS>  (1) 
2

>  <JCHEM_PHYSIOLOGICAL_CHARGE>  (1) 
-2

>  <JCHEM_PKA>  (1) 
2.627596502034607

>  <JCHEM_PKA_STRONGEST_ACIDIC>  (1) 
2.02553739119304

>  <JCHEM_PKA_STRONGEST_BASIC>  (1) 
-3.3665558401932922

>  <JCHEM_POLAR_SURFACE_AREA>  (1) 
132.8

>  <JCHEM_REFRACTIVITY>  (1) 
183.9809999999999

>  <JCHEM_ROTATABLE_BOND_COUNT>  (1) 
9

>  <JCHEM_RULE_OF_FIVE>  (1) 
0

>  <JCHEM_TRADITIONAL_IUPAC>  (1) 
iodipamide

>  <JCHEM_VEBER_RULE>  (1) 
0

>  <MOLECULAR_WEIGHT>  (1) 
1139.7618

>  <PRODUCTS>  (1) 
Cholografin Meglumine Inj; Cholografin Meglumine Inj. - Liq IV; Sinografin; Sinografin - Liq Iu

>  <SALTS>  (1) 
Iodipamide meglumine; Iodipamide sodium

>  <SMILES>  (1) 
OC(=O)C1=C(I)C(NC(=O)CCCCC(=O)NC2=C(I)C=C(I)C(C(O)=O)=C2I)=C(I)C=C1I

>  <SYNONYMS>  (1) 
3,3'-(adipoyldiimino)bis(2,4,6-triiodobenzoic acid); Adipiodona; Adipiodone; Adipiodonum

$$$$
