
     RDKit          2D

 48 50  0  0  0  0  0  0  0  0999 V2000
    3.7709   -2.2345    0.0000 S   0  0  0  0  0  0  0  0  0  0  0  0
    3.7709    0.1900    0.0000 O   0  0  0  0  0  0  0  0  0  0  0  0
    6.5649    1.8504    0.0000 N   0  0  0  0  0  0  0  0  0  0  0  0
    5.1839    0.2180    0.0000 N   0  0  0  0  0  0  0  0  0  0  0  0
    5.8698    1.4382    0.0000 C   0  0  0  0  0  0  0  0  0  0  0  0
    5.8791    0.6301    0.0000 C   0  0  0  0  0  0  0  0  0  0  0  0
    5.1932   -0.5901    0.0000 C   0  0  0  0  0  0  0  0  0  0  0  0
    4.4709   -1.0222    0.0000 C   0  0  0  0  0  0  0  0  0  0  0  0
    7.2694    1.4543    0.0000 C   0  0  0  0  0  0  0  0  0  0  0  0
    6.5556    2.6585    0.0000 C   0  0  0  0  0  0  0  0  0  0  0  0
    4.4709   -1.8304    0.0000 C   0  0  0  0  0  0  0  0  0  0  0  0
    5.1932   -2.2625    0.0000 C   0  0  0  0  0  0  0  0  0  0  0  0
    3.7709   -0.6181    0.0000 C   0  0  0  0  0  0  0  0  0  0  0  0
    5.9255   -1.0055    0.0000 C   0  0  0  0  0  0  0  0  0  0  0  0
    3.0710   -1.0222    0.0000 C   0  0  0  0  0  0  0  0  0  0  0  0
    5.9255   -1.8473    0.0000 C   0  0  0  0  0  0  0  0  0  0  0  0
    3.0710   -1.8304    0.0000 C   0  0  0  0  0  0  0  0  0  0  0  0
    7.9647    1.8666    0.0000 C   0  0  0  0  0  0  0  0  0  0  0  0
    7.2508    3.0706    0.0000 C   0  0  0  0  0  0  0  0  0  0  0  0
    5.1839   -3.0706    0.0000 C   0  0  0  0  0  0  0  0  0  0  0  0
    2.3486   -0.5901    0.0000 C   0  0  0  0  0  0  0  0  0  0  0  0
    2.3486   -2.2625    0.0000 C   0  0  0  0  0  0  0  0  0  0  0  0
    1.6164   -1.0055    0.0000 C   0  0  0  0  0  0  0  0  0  0  0  0
    1.6164   -1.8473    0.0000 C   0  0  0  0  0  0  0  0  0  0  0  0
    0.0000    0.0000    0.0000 H   0  0  0  0  0  0  0  0  0  0  0  0
    0.0000    0.0000    0.0000 H   0  0  0  0  0  0  0  0  0  0  0  0
    0.0000    0.0000    0.0000 H   0  0  0  0  0  0  0  0  0  0  0  0
    0.0000    0.0000    0.0000 H   0  0  0  0  0  0  0  0  0  0  0  0
    0.0000    0.0000    0.0000 H   0  0  0  0  0  0  0  0  0  0  0  0
    0.0000    0.0000    0.0000 H   0  0  0  0  0  0  0  0  0  0  0  0
    0.0000    0.0000    0.0000 H   0  0  0  0  0  0  0  0  0  0  0  0
    0.0000    0.0000    0.0000 H   0  0  0  0  0  0  0  0  0  0  0  0
    0.0000    0.0000    0.0000 H   0  0  0  0  0  0  0  0  0  0  0  0
    0.0000    0.0000    0.0000 H   0  0  0  0  0  0  0  0  0  0  0  0
    0.0000    0.0000    0.0000 H   0  0  0  0  0  0  0  0  0  0  0  0
    0.0000    0.0000    0.0000 H   0  0  0  0  0  0  0  0  0  0  0  0
    0.0000    0.0000    0.0000 H   0  0  0  0  0  0  0  0  0  0  0  0
    0.0000    0.0000    0.0000 H   0  0  0  0  0  0  0  0  0  0  0  0
    0.0000    0.0000    0.0000 H   0  0  0  0  0  0  0  0  0  0  0  0
    0.0000    0.0000    0.0000 H   0  0  0  0  0  0  0  0  0  0  0  0
    0.0000    0.0000    0.0000 H   0  0  0  0  0  0  0  0  0  0  0  0
    0.0000    0.0000    0.0000 H   0  0  0  0  0  0  0  0  0  0  0  0
    0.0000    0.0000    0.0000 H   0  0  0  0  0  0  0  0  0  0  0  0
    0.0000    0.0000    0.0000 H   0  0  0  0  0  0  0  0  0  0  0  0
    0.0000    0.0000    0.0000 H   0  0  0  0  0  0  0  0  0  0  0  0
    0.0000    0.0000    0.0000 H   0  0  0  0  0  0  0  0  0  0  0  0
    0.0000    0.0000    0.0000 H   0  0  0  0  0  0  0  0  0  0  0  0
    0.0000    0.0000    0.0000 H   0  0  0  0  0  0  0  0  0  0  0  0
  1 11  1  0
  1 17  1  0
  2 13  2  0
  3  5  1  0
  3  9  1  0
  3 10  1  0
  4  6  1  0
  4  7  1  0
  5  6  1  0
  7  8  1  0
  7 14  2  0
  8 11  2  0
  8 13  1  0
  9 18  1  0
 10 19  1  0
 11 12  1  0
 12 16  2  0
 12 20  1  0
 13 15  1  0
 14 16  1  0
 15 17  2  0
 15 21  1  0
 17 22  1  0
 21 23  2  0
 22 24  2  0
 23 24  1  0
  4 25  1  0
  5 26  1  0
  5 27  1  0
  6 28  1  0
  6 29  1  0
  9 30  1  0
  9 31  1  0
 10 32  1  0
 10 33  1  0
 14 34  1  0
 16 35  1  0
 18 36  1  0
 18 37  1  0
 18 38  1  0
 19 39  1  0
 19 40  1  0
 19 41  1  0
 20 42  1  0
 20 43  1  0
 20 44  1  0
 21 45  1  0
 22 46  1  0
 23 47  1  0
 24 48  1  0
M  END
>  <ALOGPS_LOGP>  (1) 
4.72

>  <ALOGPS_LOGS>  (1) 
-5.03

>  <ALOGPS_SOLUBILITY>  (1) 
3.15e-03 g/l

>  <DATABASE_ID>  (1) 
DB04967

>  <DATABASE_NAME>  (1) 
drugbank

>  <DRUGBANK_ID>  (1) 
DB04967

>  <DRUG_GROUPS>  (1) 
approved; investigational

>  <EXACT_MASS>  (1) 
340.16093409

>  <FORMULA>  (1) 
C20H24N2OS

>  <GENERIC_NAME>  (1) 
Lucanthone

>  <INCHI_IDENTIFIER>  (1) 
InChI=1S/C20H24N2OS/c1-4-22(5-2)13-12-21-16-11-10-14(3)20-18(16)19(23)15-8-6-7-9-17(15)24-20/h6-11,21H,4-5,12-13H2,1-3H3

>  <INCHI_KEY>  (1) 
FBQPGGIHOFZRGH-UHFFFAOYSA-N

>  <JCHEM_ACCEPTOR_COUNT>  (1) 
3

>  <JCHEM_AVERAGE_POLARIZABILITY>  (1) 
39.600377716600136

>  <JCHEM_BIOAVAILABILITY>  (1) 
1

>  <JCHEM_DONOR_COUNT>  (1) 
1

>  <JCHEM_FORMAL_CHARGE>  (1) 
0

>  <JCHEM_GHOSE_FILTER>  (1) 
1

>  <JCHEM_IUPAC>  (1) 
1-{[2-(diethylamino)ethyl]amino}-4-methyl-9H-thioxanthen-9-one

>  <JCHEM_LOGP>  (1) 
5.0165624493333345

>  <JCHEM_MDDR_LIKE_RULE>  (1) 
1

>  <JCHEM_NUMBER_OF_RINGS>  (1) 
3

>  <JCHEM_PHYSIOLOGICAL_CHARGE>  (1) 
1

>  <JCHEM_PKA_STRONGEST_ACIDIC>  (1) 
18.841315559332447

>  <JCHEM_PKA_STRONGEST_BASIC>  (1) 
8.69395226253895

>  <JCHEM_POLAR_SURFACE_AREA>  (1) 
32.34

>  <JCHEM_REFRACTIVITY>  (1) 
106.01090000000003

>  <JCHEM_ROTATABLE_BOND_COUNT>  (1) 
6

>  <JCHEM_RULE_OF_FIVE>  (1) 
0

>  <JCHEM_TRADITIONAL_IUPAC>  (1) 
lucanthone

>  <JCHEM_VEBER_RULE>  (1) 
1

>  <MOLECULAR_WEIGHT>  (1) 
340.482

>  <SALTS>  (1) 
Lucanthone hydrochloride

>  <SMILES>  (1) 
CCN(CC)CCNC1=C2C(=O)C3=CC=CC=C3SC2=C(C)C=C1

>  <SYNONYMS>  (1) 
1-((2-(Diethylamino)ethyl)amino)-4-methylthioxanthen-9-one; 1-{[2-(diethylamino)ethyl]amino}-4-methylthioxanthen-9-one; 1-diethylaminoethylethylamino-4-methyl-thioxanthenone; Lucanthonum; Lucantona

$$$$
