
     RDKit          2D

 78 82  0  0  1  0  0  0  0  0999 V2000
    1.2184   -4.3069    0.0000 C   0  0  0  0  0  0  0  0  0  0  0  0
    1.8985   -5.2548    0.0000 C   0  0  0  0  0  0  0  0  0  0  0  0
    1.6504   -2.6739    0.0000 C   0  0  0  0  0  0  0  0  0  0  0  0
    5.8117   -4.3385    0.0000 C   0  0  0  0  0  0  0  0  0  0  0  0
    3.3695   -3.9367    0.0000 C   0  0  0  0  0  0  0  0  0  0  0  0
    1.5094   -0.4307    0.0000 C   0  0  0  0  0  0  0  0  0  0  0  0
    3.8861    1.0846    0.0000 C   0  0  0  0  0  0  0  0  0  0  0  0
    2.8465   -4.5747    0.0000 C   0  0  0  0  0  0  0  0  0  0  0  0
    2.0536   -0.9204    0.0000 C   0  0  0  0  0  0  0  0  0  0  0  0
    4.1835   -4.0706    0.0000 C   0  0  0  0  0  0  0  0  0  0  0  0
    1.7748    0.3504    0.0000 C   0  0  0  0  0  0  0  0  0  0  0  0
    3.0635    1.0217    0.0000 C   0  0  0  0  0  0  0  0  0  0  0  0
    5.2156    0.7832    0.0000 C   0  0  0  0  0  0  0  0  0  0  0  0
    4.9722   -0.8488    0.0000 C   0  0  0  0  0  0  0  0  0  0  0  0
    2.3211   -1.0867    0.0000 C   0  0  0  0  0  0  0  0  0  0  0  0
    5.2296   -2.7946    0.0000 C   0  0  0  0  0  0  0  0  0  0  0  0
    7.0562   -0.3255    0.0000 C   0  0  0  0  0  0  0  0  0  0  0  0
    4.4481    0.4806    0.0000 C   0  0  0  0  0  0  0  0  0  0  0  0
    4.3264   -0.3353    0.0000 C   0  0  0  0  0  0  0  0  0  0  0  0
    5.8614    0.2698    0.0000 C   0  0  0  0  0  0  0  0  0  0  0  0
    5.7397   -0.5462    0.0000 C   0  0  0  0  0  0  0  0  0  0  0  0
    2.7663   -1.7813    0.0000 C   0  0  0  0  0  0  0  0  0  0  0  0
    6.0436   -2.9285    0.0000 C   0  0  0  0  0  0  0  0  0  0  0  0
    3.6125   -0.7489    0.0000 C   0  0  0  0  0  0  0  0  0  0  0  0
    3.5644   -1.5725    0.0000 C   0  0  0  0  0  0  0  0  0  0  0  0
    4.0685   -2.9096    0.0000 C   0  0  0  0  0  0  0  0  0  0  0  0
    2.0324   -4.4408    0.0000 C   0  0  0  0  0  0  0  0  0  0  0  0
    2.8441   -0.4487    0.0000 C   0  0  0  0  0  0  0  0  0  0  0  0
    4.7066   -3.4326    0.0000 C   0  0  0  0  0  0  0  0  0  0  0  0
    2.5998    0.3393    0.0000 N   0  0  0  0  0  0  0  0  0  0  0  0
    6.5666   -2.2905    0.0000 O   0  0  0  0  0  0  0  0  0  0  0  0
    3.2966   -3.2006    0.0000 O   0  0  0  0  0  0  0  0  0  0  0  0
    2.1663   -3.6267    0.0000 O   0  0  0  0  0  0  0  0  0  0  0  0
    5.3446   -3.9556    0.0000 O   0  0  0  0  0  0  0  0  0  0  0  0
    2.4660   -2.5497    0.0000 O   0  0  0  0  0  0  0  0  0  0  0  0
    6.3347   -3.7005    0.0000 O   0  0  0  0  0  0  0  0  0  0  0  0
    6.6751    0.4061    0.0000 O   0  0  0  0  0  0  0  0  0  0  0  0
    6.4781   -0.9141    0.0000 O   0  0  0  0  0  0  0  0  0  0  0  0
    4.2025   -2.0955    0.0000 O   0  0  0  0  0  0  0  0  0  0  0  0
    0.0000    0.0000    0.0000 H   0  0  0  0  0  0  0  0  0  0  0  0
    0.0000    0.0000    0.0000 H   0  0  0  0  0  0  0  0  0  0  0  0
    0.0000    0.0000    0.0000 H   0  0  0  0  0  0  0  0  0  0  0  0
    0.0000    0.0000    0.0000 H   0  0  0  0  0  0  0  0  0  0  0  0
    0.0000    0.0000    0.0000 H   0  0  0  0  0  0  0  0  0  0  0  0
    0.0000    0.0000    0.0000 H   0  0  0  0  0  0  0  0  0  0  0  0
    0.0000    0.0000    0.0000 H   0  0  0  0  0  0  0  0  0  0  0  0
    0.0000    0.0000    0.0000 H   0  0  0  0  0  0  0  0  0  0  0  0
    0.0000    0.0000    0.0000 H   0  0  0  0  0  0  0  0  0  0  0  0
    0.0000    0.0000    0.0000 H   0  0  0  0  0  0  0  0  0  0  0  0
    0.0000    0.0000    0.0000 H   0  0  0  0  0  0  0  0  0  0  0  0
    0.0000    0.0000    0.0000 H   0  0  0  0  0  0  0  0  0  0  0  0
    0.0000    0.0000    0.0000 H   0  0  0  0  0  0  0  0  0  0  0  0
    0.0000    0.0000    0.0000 H   0  0  0  0  0  0  0  0  0  0  0  0
    0.0000    0.0000    0.0000 H   0  0  0  0  0  0  0  0  0  0  0  0
    0.0000    0.0000    0.0000 H   0  0  0  0  0  0  0  0  0  0  0  0
    0.0000    0.0000    0.0000 H   0  0  0  0  0  0  0  0  0  0  0  0
    0.0000    0.0000    0.0000 H   0  0  0  0  0  0  0  0  0  0  0  0
    0.0000    0.0000    0.0000 H   0  0  0  0  0  0  0  0  0  0  0  0
    0.0000    0.0000    0.0000 H   0  0  0  0  0  0  0  0  0  0  0  0
    0.0000    0.0000    0.0000 H   0  0  0  0  0  0  0  0  0  0  0  0
    0.0000    0.0000    0.0000 H   0  0  0  0  0  0  0  0  0  0  0  0
    0.0000    0.0000    0.0000 H   0  0  0  0  0  0  0  0  0  0  0  0
    0.0000    0.0000    0.0000 H   0  0  0  0  0  0  0  0  0  0  0  0
    0.0000    0.0000    0.0000 H   0  0  0  0  0  0  0  0  0  0  0  0
    0.0000    0.0000    0.0000 H   0  0  0  0  0  0  0  0  0  0  0  0
    0.0000    0.0000    0.0000 H   0  0  0  0  0  0  0  0  0  0  0  0
    0.0000    0.0000    0.0000 H   0  0  0  0  0  0  0  0  0  0  0  0
    0.0000    0.0000    0.0000 H   0  0  0  0  0  0  0  0  0  0  0  0
    0.0000    0.0000    0.0000 H   0  0  0  0  0  0  0  0  0  0  0  0
    0.0000    0.0000    0.0000 H   0  0  0  0  0  0  0  0  0  0  0  0
    0.0000    0.0000    0.0000 H   0  0  0  0  0  0  0  0  0  0  0  0
    0.0000    0.0000    0.0000 H   0  0  0  0  0  0  0  0  0  0  0  0
    0.0000    0.0000    0.0000 H   0  0  0  0  0  0  0  0  0  0  0  0
    0.0000    0.0000    0.0000 H   0  0  0  0  0  0  0  0  0  0  0  0
    0.0000    0.0000    0.0000 H   0  0  0  0  0  0  0  0  0  0  0  0
    0.0000    0.0000    0.0000 H   0  0  0  0  0  0  0  0  0  0  0  0
    0.0000    0.0000    0.0000 H   0  0  0  0  0  0  0  0  0  0  0  0
    0.0000    0.0000    0.0000 H   0  0  0  0  0  0  0  0  0  0  0  0
  8  5  1  0
  9  6  1  0
 10  5  1  0
 11  6  1  0
 12  7  1  0
 18  7  1  0
 18 13  2  0
 19 14  2  0
 19 18  1  0
 20 13  1  0
 21 14  1  0
 21 20  2  0
 22 15  2  0
 23 16  1  0
 24 19  1  0
 25 22  1  0
 25 24  1  0
 27  1  1  0
 27  2  1  0
 27  8  1  0
 28  9  1  1
 28 15  1  0
 28 24  1  0
 29 10  1  6
 29 16  1  0
 29 26  1  0
 30 11  1  0
 30 12  1  0
 28 30  1  0
 31 23  2  0
 32 26  2  0
 33 27  1  0
 29 34  1  0
 35  3  1  0
 35 22  1  0
 36  4  1  0
 36 23  1  0
 37 17  1  0
 37 20  1  0
 38 17  1  0
 38 21  1  0
 25 39  1  1
 39 26  1  0
  1 40  1  0
  1 41  1  0
  1 42  1  0
  2 43  1  0
  2 44  1  0
  2 45  1  0
  3 46  1  0
  3 47  1  0
  3 48  1  0
  4 49  1  0
  4 50  1  0
  4 51  1  0
  5 52  1  0
  5 53  1  0
  6 54  1  0
  6 55  1  0
  7 56  1  0
  7 57  1  0
  8 58  1  0
  8 59  1  0
  9 60  1  0
  9 61  1  0
 10 62  1  0
 10 63  1  0
 11 64  1  0
 11 65  1  0
 12 66  1  0
 12 67  1  0
 13 68  1  0
 14 69  1  0
 15 70  1  0
 16 71  1  0
 16 72  1  0
 17 73  1  0
 17 74  1  0
 24 75  1  1
 25 76  1  0
 33 77  1  0
 34 78  1  0
M  END
>  <ALOGPS_LOGP>  (1) 
2.09

>  <ALOGPS_LOGS>  (1) 
-3.70

>  <ALOGPS_SOLUBILITY>  (1) 
1.08e-01 g/l

>  <DATABASE_ID>  (1) 
DB04865

>  <DATABASE_NAME>  (1) 
drugbank

>  <DRUGBANK_ID>  (1) 
DB04865

>  <DRUG_GROUPS>  (1) 
approved

>  <EXACT_MASS>  (1) 
545.262481851

>  <FORMULA>  (1) 
C29H39NO9

>  <GENERIC_NAME>  (1) 
Omacetaxine mepesuccinate

>  <INCHI_IDENTIFIER>  (1) 
InChI=1S/C29H39NO9/c1-27(2,33)8-5-10-29(34,16-23(31)36-4)26(32)39-25-22(35-3)15-28-9-6-11-30(28)12-7-18-13-20-21(38-17-37-20)14-19(18)24(25)28/h13-15,24-25,33-34H,5-12,16-17H2,1-4H3/t24-,25-,28+,29-/m1/s1

>  <INCHI_KEY>  (1) 
HYFHYPWGAURHIV-JFIAXGOJSA-N

>  <INTERNATIONAL_BRANDS>  (1) 
Ceflatonin

>  <JCHEM_ACCEPTOR_COUNT>  (1) 
8

>  <JCHEM_AVERAGE_POLARIZABILITY>  (1) 
57.62139891867372

>  <JCHEM_BIOAVAILABILITY>  (1) 
0

>  <JCHEM_DONOR_COUNT>  (1) 
2

>  <JCHEM_FORMAL_CHARGE>  (1) 
0

>  <JCHEM_GHOSE_FILTER>  (1) 
0

>  <JCHEM_IUPAC>  (1) 
(2S,3S,6R)-4-methoxy-16,18-dioxa-10-azapentacyclo[11.7.0.0²,⁶.0⁶,¹⁰.0¹⁵,¹⁹]icosa-1(20),4,13,15(19)-tetraen-3-yl 1-methyl (3R)-3-hydroxy-3-(4-hydroxy-4-methylpentyl)butanedioate

>  <JCHEM_LOGP>  (1) 
1.8846706793333348

>  <JCHEM_MDDR_LIKE_RULE>  (1) 
1

>  <JCHEM_NUMBER_OF_RINGS>  (1) 
5

>  <JCHEM_PHYSIOLOGICAL_CHARGE>  (1) 
1

>  <JCHEM_PKA>  (1) 
18.53070408521904

>  <JCHEM_PKA_STRONGEST_ACIDIC>  (1) 
12.090441034596882

>  <JCHEM_PKA_STRONGEST_BASIC>  (1) 
9.417794628939516

>  <JCHEM_POLAR_SURFACE_AREA>  (1) 
123.99000000000002

>  <JCHEM_REFRACTIVITY>  (1) 
142.0749

>  <JCHEM_ROTATABLE_BOND_COUNT>  (1) 
11

>  <JCHEM_RULE_OF_FIVE>  (1) 
0

>  <JCHEM_TRADITIONAL_IUPAC>  (1) 
omacetaxine mepesuccinate

>  <JCHEM_VEBER_RULE>  (1) 
0

>  <MOLECULAR_WEIGHT>  (1) 
545.6213

>  <PRODUCTS>  (1) 
Synribo

>  <SALTS>  (1) 
Omacetaxine mepesuccinate hydrochloride

>  <SMILES>  (1) 
[H][C@@]1(OC(=O)[C@@](O)(CCCC(C)(C)O)CC(=O)OC)C(OC)=C[C@]23CCCN2CCC2=CC4=C(OCO4)C=C2[C@]13[H]

>  <SYNONYMS>  (1) 
(−)-homoharringtonine; (2'R,3S,4S,5R)-(−)-homoharringtonine; HHT; Homoharringtonin; Homoharringtonine

$$$$
