
     RDKit          2D

 74 77  0  0  1  0  0  0  0  0999 V2000
    2.7441    1.8430    0.0000 C   0  0  0  0  0  0  0  0  0  0  0  0
    6.8256   -1.9175    0.0000 C   0  0  0  0  0  0  0  0  0  0  0  0
    5.0373   -2.1482    0.0000 C   0  0  0  0  0  0  0  0  0  0  0  0
    2.5214   -1.7461    0.0000 C   0  0  0  0  0  0  0  0  0  0  0  0
    2.2123    1.2123    0.0000 C   0  0  0  0  0  0  0  0  0  0  0  0
    5.6974   -2.7946    0.0000 C   0  0  0  0  0  0  0  0  0  0  0  0
    5.7313   -0.5866    0.0000 C   0  0  0  0  0  0  0  0  0  0  0  0
    5.0484   -0.1236    0.0000 C   0  0  0  0  0  0  0  0  0  0  0  0
    6.2038   -3.4459    0.0000 C   0  0  0  0  0  0  0  0  0  0  0  0
    0.8971   -1.4557    0.0000 C   0  0  0  0  0  0  0  0  0  0  0  0
    3.3335   -1.8914    0.0000 C   0  0  0  0  0  0  0  0  0  0  0  0
    1.7092   -1.6009    0.0000 C   0  0  0  0  0  0  0  0  0  0  0  0
    4.1456   -2.0366    0.0000 C   0  0  0  0  0  0  0  0  0  0  0  0
    1.1486   -0.0491    0.0000 C   0  0  0  0  0  0  0  0  0  0  0  0
    6.0083   -2.0304    0.0000 C   0  0  0  0  0  0  0  0  0  0  0  0
    0.6168   -0.6798    0.0000 C   0  0  0  0  0  0  0  0  0  0  0  0
    2.4926    0.4364    0.0000 C   0  0  0  0  0  0  0  0  0  0  0  0
    5.5020   -1.3791    0.0000 C   0  0  0  0  0  0  0  0  0  0  0  0
    4.3971   -0.6299    0.0000 C   0  0  0  0  0  0  0  0  0  0  0  0
    3.0532   -1.1154    0.0000 C   0  0  0  0  0  0  0  0  0  0  0  0
    1.9608   -0.1943    0.0000 C   0  0  0  0  0  0  0  0  0  0  0  0
    5.8929   -4.2101    0.0000 C   0  0  0  0  0  0  0  0  0  0  0  0
    3.5850   -0.4847    0.0000 C   0  0  0  0  0  0  0  0  0  0  0  0
    3.3047    0.2912    0.0000 C   0  0  0  0  0  0  0  0  0  0  0  0
    4.6774   -1.4059    0.0000 C   0  0  0  0  0  0  0  0  0  0  0  0
    2.2411   -0.9702    0.0000 C   0  0  0  0  0  0  0  0  0  0  0  0
   -0.1953   -0.5346    0.0000 O   0  0  0  0  0  0  0  0  0  0  0  0
    6.3993   -4.8614    0.0000 O   0  0  0  0  0  0  0  0  0  0  0  0
    5.0757   -4.3229    0.0000 O   0  0  0  0  0  0  0  0  0  0  0  0
    3.8365    0.9219    0.0000 O   0  0  0  0  0  0  0  0  0  0  0  0
    0.0000    0.0000    0.0000 H   0  0  0  0  0  0  0  0  0  0  0  0
    0.0000    0.0000    0.0000 H   0  0  0  0  0  0  0  0  0  0  0  0
    0.0000    0.0000    0.0000 H   0  0  0  0  0  0  0  0  0  0  0  0
    0.0000    0.0000    0.0000 H   0  0  0  0  0  0  0  0  0  0  0  0
    0.0000    0.0000    0.0000 H   0  0  0  0  0  0  0  0  0  0  0  0
    0.0000    0.0000    0.0000 H   0  0  0  0  0  0  0  0  0  0  0  0
    0.0000    0.0000    0.0000 H   0  0  0  0  0  0  0  0  0  0  0  0
    0.0000    0.0000    0.0000 H   0  0  0  0  0  0  0  0  0  0  0  0
    0.0000    0.0000    0.0000 H   0  0  0  0  0  0  0  0  0  0  0  0
    0.0000    0.0000    0.0000 H   0  0  0  0  0  0  0  0  0  0  0  0
    0.0000    0.0000    0.0000 H   0  0  0  0  0  0  0  0  0  0  0  0
    0.0000    0.0000    0.0000 H   0  0  0  0  0  0  0  0  0  0  0  0
    0.0000    0.0000    0.0000 H   0  0  0  0  0  0  0  0  0  0  0  0
    0.0000    0.0000    0.0000 H   0  0  0  0  0  0  0  0  0  0  0  0
    0.0000    0.0000    0.0000 H   0  0  0  0  0  0  0  0  0  0  0  0
    0.0000    0.0000    0.0000 H   0  0  0  0  0  0  0  0  0  0  0  0
    0.0000    0.0000    0.0000 H   0  0  0  0  0  0  0  0  0  0  0  0
    0.0000    0.0000    0.0000 H   0  0  0  0  0  0  0  0  0  0  0  0
    0.0000    0.0000    0.0000 H   0  0  0  0  0  0  0  0  0  0  0  0
    0.0000    0.0000    0.0000 H   0  0  0  0  0  0  0  0  0  0  0  0
    0.0000    0.0000    0.0000 H   0  0  0  0  0  0  0  0  0  0  0  0
    0.0000    0.0000    0.0000 H   0  0  0  0  0  0  0  0  0  0  0  0
    0.0000    0.0000    0.0000 H   0  0  0  0  0  0  0  0  0  0  0  0
    0.0000    0.0000    0.0000 H   0  0  0  0  0  0  0  0  0  0  0  0
    0.0000    0.0000    0.0000 H   0  0  0  0  0  0  0  0  0  0  0  0
    0.0000    0.0000    0.0000 H   0  0  0  0  0  0  0  0  0  0  0  0
    0.0000    0.0000    0.0000 H   0  0  0  0  0  0  0  0  0  0  0  0
    0.0000    0.0000    0.0000 H   0  0  0  0  0  0  0  0  0  0  0  0
    0.0000    0.0000    0.0000 H   0  0  0  0  0  0  0  0  0  0  0  0
    0.0000    0.0000    0.0000 H   0  0  0  0  0  0  0  0  0  0  0  0
    0.0000    0.0000    0.0000 H   0  0  0  0  0  0  0  0  0  0  0  0
    0.0000    0.0000    0.0000 H   0  0  0  0  0  0  0  0  0  0  0  0
    0.0000    0.0000    0.0000 H   0  0  0  0  0  0  0  0  0  0  0  0
    0.0000    0.0000    0.0000 H   0  0  0  0  0  0  0  0  0  0  0  0
    0.0000    0.0000    0.0000 H   0  0  0  0  0  0  0  0  0  0  0  0
    0.0000    0.0000    0.0000 H   0  0  0  0  0  0  0  0  0  0  0  0
    0.0000    0.0000    0.0000 H   0  0  0  0  0  0  0  0  0  0  0  0
    0.0000    0.0000    0.0000 H   0  0  0  0  0  0  0  0  0  0  0  0
    0.0000    0.0000    0.0000 H   0  0  0  0  0  0  0  0  0  0  0  0
    0.0000    0.0000    0.0000 H   0  0  0  0  0  0  0  0  0  0  0  0
    0.0000    0.0000    0.0000 H   0  0  0  0  0  0  0  0  0  0  0  0
    0.0000    0.0000    0.0000 H   0  0  0  0  0  0  0  0  0  0  0  0
    0.0000    0.0000    0.0000 H   0  0  0  0  0  0  0  0  0  0  0  0
    0.0000    0.0000    0.0000 H   0  0  0  0  0  0  0  0  0  0  0  0
  5  1  1  0
  8  7  1  0
  9  6  1  0
 12 10  1  0
 13 11  1  0
 15  2  1  1
 15  6  1  0
 16 10  1  0
 16 14  1  0
 17  5  1  1
 18  7  1  0
 18 15  1  0
 19  8  1  0
 20 11  1  0
 21 14  1  0
 21 17  1  0
 22  9  1  0
 23 19  1  0
 23 20  1  0
 24 17  1  0
 24 23  1  0
 25  3  1  6
 25 13  1  0
 25 18  1  0
 25 19  1  0
 26  4  1  6
 26 12  1  0
 26 20  1  0
 26 21  1  0
 16 27  1  1
 28 22  2  0
 29 22  1  0
 24 30  1  6
  1 31  1  0
  1 32  1  0
  1 33  1  0
  2 34  1  0
  2 35  1  0
  2 36  1  0
  3 37  1  0
  3 38  1  0
  3 39  1  0
  4 40  1  0
  4 41  1  0
  4 42  1  0
  5 43  1  0
  5 44  1  0
  6 45  1  0
  6 46  1  0
  7 47  1  0
  7 48  1  0
  8 49  1  0
  8 50  1  0
  9 51  1  0
  9 52  1  0
 10 53  1  0
 10 54  1  0
 11 55  1  0
 11 56  1  0
 12 57  1  0
 12 58  1  0
 13 59  1  0
 13 60  1  0
 14 61  1  0
 14 62  1  0
 15 63  1  0
 16 64  1  0
 17 65  1  0
 18 66  1  1
 19 67  1  1
 20 68  1  1
 21 69  1  6
 23 70  1  6
 24 71  1  0
 27 72  1  0
 29 73  1  0
 30 74  1  0
M  END
>  <ALOGPS_LOGP>  (1) 
3.50

>  <ALOGPS_LOGS>  (1) 
-4.58

>  <ALOGPS_SOLUBILITY>  (1) 
1.10e-02 g/l

>  <DATABASE_ID>  (1) 
DB05990

>  <DATABASE_NAME>  (1) 
drugbank

>  <DRUGBANK_ID>  (1) 
DB05990

>  <DRUG_GROUPS>  (1) 
approved

>  <EXACT_MASS>  (1) 
420.323959896

>  <FORMULA>  (1) 
C26H44O4

>  <GENERIC_NAME>  (1) 
Obeticholic acid

>  <INCHI_IDENTIFIER>  (1) 
InChI=1S/C26H44O4/c1-5-17-21-14-16(27)10-12-26(21,4)20-11-13-25(3)18(15(2)6-9-22(28)29)7-8-19(25)23(20)24(17)30/h15-21,23-24,27,30H,5-14H2,1-4H3,(H,28,29)/t15-,16-,17-,18-,19+,20+,21+,23+,24-,25-,26-/m1/s1

>  <INCHI_KEY>  (1) 
ZXERDUOLZKYMJM-ZWECCWDJSA-N

>  <JCHEM_ACCEPTOR_COUNT>  (1) 
4

>  <JCHEM_AVERAGE_POLARIZABILITY>  (1) 
49.74194331851826

>  <JCHEM_BIOAVAILABILITY>  (1) 
1

>  <JCHEM_DONOR_COUNT>  (1) 
3

>  <JCHEM_FORMAL_CHARGE>  (1) 
0

>  <JCHEM_GHOSE_FILTER>  (1) 
0

>  <JCHEM_IUPAC>  (1) 
(4R)-4-[(1S,2S,5R,7S,8R,9R,10S,11S,14R,15R)-8-ethyl-5,9-dihydroxy-2,15-dimethyltetracyclo[8.7.0.0²,⁷.0¹¹,¹⁵]heptadecan-14-yl]pentanoic acid

>  <JCHEM_LOGP>  (1) 
4.522847015000002

>  <JCHEM_MDDR_LIKE_RULE>  (1) 
0

>  <JCHEM_NUMBER_OF_RINGS>  (1) 
4

>  <JCHEM_PHYSIOLOGICAL_CHARGE>  (1) 
-1

>  <JCHEM_PKA>  (1) 
18.30093208772296

>  <JCHEM_PKA_STRONGEST_ACIDIC>  (1) 
4.595951216034423

>  <JCHEM_PKA_STRONGEST_BASIC>  (1) 
-0.15902971015680645

>  <JCHEM_POLAR_SURFACE_AREA>  (1) 
77.76

>  <JCHEM_REFRACTIVITY>  (1) 
118.34639999999996

>  <JCHEM_ROTATABLE_BOND_COUNT>  (1) 
5

>  <JCHEM_RULE_OF_FIVE>  (1) 
1

>  <JCHEM_TRADITIONAL_IUPAC>  (1) 
6-ecdca

>  <JCHEM_VEBER_RULE>  (1) 
0

>  <MOLECULAR_WEIGHT>  (1) 
420.6252

>  <PRODUCTS>  (1) 
Ocaliva

>  <SMILES>  (1) 
[H][C@@](C)(CCC(O)=O)[C@@]1([H])CC[C@@]2([H])[C@]3([H])[C@]([H])(O)[C@]([H])(CC)[C@]4([H])C[C@]([H])(O)CC[C@]4(C)[C@@]3([H])CC[C@]12C

>  <SYNONYMS>  (1) 
6-ECDCA; 6-Ethyl-CDCA; 6-ethylchenodeoxycholic acid; 6alpha-Ethyl-chenodeoxycholic acid; 6α-ethylchenodeoxycholic acid

$$$$
