
     RDKit          2D

 28 29  0  0  1  0  0  0  0  0999 V2000
    3.7445   -0.4772    0.0000 O   0  0  0  0  0  0  0  0  0  0  0  0
    2.8472    2.2848    0.0000 O   0  0  0  0  0  0  0  0  0  0  0  0
    3.5146    0.9748    0.0000 N   0  0  0  0  0  0  0  0  0  0  0  0
    2.4347    0.1902    0.0000 C   0  0  0  0  0  0  0  0  0  0  0  0
    2.1796    0.9748    0.0000 C   0  0  0  0  0  0  0  0  0  0  0  0
    3.2597    0.1902    0.0000 C   0  0  0  0  0  0  0  0  0  0  0  0
    2.4347   -0.6348    0.0000 C   0  0  0  0  0  0  0  0  0  0  0  0
    1.6500   -0.0647    0.0000 C   0  0  0  0  0  0  0  0  0  0  0  0
    2.8472    1.4598    0.0000 C   0  0  0  0  0  0  0  0  0  0  0  0
    3.1491   -1.0473    0.0000 C   0  0  0  0  0  0  0  0  0  0  0  0
    1.7201   -1.0473    0.0000 C   0  0  0  0  0  0  0  0  0  0  0  0
    4.2992    1.2298    0.0000 C   0  0  0  0  0  0  0  0  0  0  0  0
    3.1491   -1.8723    0.0000 C   0  0  0  0  0  0  0  0  0  0  0  0
    1.7201   -1.8723    0.0000 C   0  0  0  0  0  0  0  0  0  0  0  0
    2.4347   -2.2848    0.0000 C   0  0  0  0  0  0  0  0  0  0  0  0
    0.0000    0.0000    0.0000 H   0  0  0  0  0  0  0  0  0  0  0  0
    0.0000    0.0000    0.0000 H   0  0  0  0  0  0  0  0  0  0  0  0
    0.0000    0.0000    0.0000 H   0  0  0  0  0  0  0  0  0  0  0  0
    0.0000    0.0000    0.0000 H   0  0  0  0  0  0  0  0  0  0  0  0
    0.0000    0.0000    0.0000 H   0  0  0  0  0  0  0  0  0  0  0  0
    0.0000    0.0000    0.0000 H   0  0  0  0  0  0  0  0  0  0  0  0
    0.0000    0.0000    0.0000 H   0  0  0  0  0  0  0  0  0  0  0  0
    0.0000    0.0000    0.0000 H   0  0  0  0  0  0  0  0  0  0  0  0
    0.0000    0.0000    0.0000 H   0  0  0  0  0  0  0  0  0  0  0  0
    0.0000    0.0000    0.0000 H   0  0  0  0  0  0  0  0  0  0  0  0
    0.0000    0.0000    0.0000 H   0  0  0  0  0  0  0  0  0  0  0  0
    0.0000    0.0000    0.0000 H   0  0  0  0  0  0  0  0  0  0  0  0
    0.0000    0.0000    0.0000 H   0  0  0  0  0  0  0  0  0  0  0  0
  1  6  2  0
  2  9  2  0
  3  6  1  0
  3  9  1  0
  3 12  1  0
  4  5  1  0
  4  6  1  0
  4  7  1  0
  4  8  1  0
  5  9  1  0
  7 10  2  0
  7 11  1  0
 10 13  1  0
 11 14  2  0
 13 15  2  0
 14 15  1  0
  5 16  1  0
  5 17  1  0
  8 18  1  0
  8 19  1  0
  8 20  1  0
 10 21  1  0
 11 22  1  0
 12 23  1  0
 12 24  1  0
 12 25  1  0
 13 26  1  0
 14 27  1  0
 15 28  1  0
M  END
>  <ALOGPS_LOGP>  (1) 
1.46

>  <ALOGPS_LOGS>  (1) 
-1.98

>  <ALOGPS_SOLUBILITY>  (1) 
2.13e+00 g/l

>  <DATABASE_ID>  (1) 
DB05246

>  <DATABASE_NAME>  (1) 
drugbank

>  <DRUGBANK_ID>  (1) 
DB05246

>  <DRUG_GROUPS>  (1) 
approved

>  <EXACT_MASS>  (1) 
203.094628665

>  <FORMULA>  (1) 
C12H13NO2

>  <GENERIC_NAME>  (1) 
Methsuximide

>  <INCHI_IDENTIFIER>  (1) 
InChI=1S/C12H13NO2/c1-12(9-6-4-3-5-7-9)8-10(14)13(2)11(12)15/h3-7H,8H2,1-2H3

>  <INCHI_KEY>  (1) 
AJXPJJZHWIXJCJ-UHFFFAOYSA-N

>  <JCHEM_ACCEPTOR_COUNT>  (1) 
2

>  <JCHEM_AVERAGE_POLARIZABILITY>  (1) 
21.402691009975545

>  <JCHEM_BIOAVAILABILITY>  (1) 
1

>  <JCHEM_DONOR_COUNT>  (1) 
0

>  <JCHEM_FORMAL_CHARGE>  (1) 
0

>  <JCHEM_GHOSE_FILTER>  (1) 
1

>  <JCHEM_IUPAC>  (1) 
1,3-dimethyl-3-phenylpyrrolidine-2,5-dione

>  <JCHEM_LOGP>  (1) 
1.4630090576666663

>  <JCHEM_MDDR_LIKE_RULE>  (1) 
0

>  <JCHEM_NUMBER_OF_RINGS>  (1) 
2

>  <JCHEM_PHYSIOLOGICAL_CHARGE>  (1) 
0

>  <JCHEM_PKA_STRONGEST_ACIDIC>  (1) 
19.0270705097855

>  <JCHEM_PKA_STRONGEST_BASIC>  (1) 
-7.236744369121764

>  <JCHEM_POLAR_SURFACE_AREA>  (1) 
37.38

>  <JCHEM_REFRACTIVITY>  (1) 
56.348600000000005

>  <JCHEM_ROTATABLE_BOND_COUNT>  (1) 
1

>  <JCHEM_RULE_OF_FIVE>  (1) 
1

>  <JCHEM_TRADITIONAL_IUPAC>  (1) 
methsuximide

>  <JCHEM_VEBER_RULE>  (1) 
1

>  <MOLECULAR_WEIGHT>  (1) 
203.2371

>  <PRODUCTS>  (1) 
Celontin; Celontin Cap 300mg

>  <SMILES>  (1) 
CN1C(=O)CC(C)(C1=O)C1=CC=CC=C1

>  <SYNONYMS>  (1) 
Mesuximida; Mesuximidum

$$$$
