
     RDKit          2D

 56 58  0  0  1  0  0  0  0  0999 V2000
   -3.2425    2.5559    0.0000 C   0  0  0  0  0  0  0  0  0  0  0  0
    3.9933   -2.4750    0.0000 C   0  0  0  0  0  0  0  0  0  0  0  0
   -2.0050    3.2703    0.0000 C   0  0  0  0  0  0  0  0  0  0  0  0
   -0.7675   -1.1269    0.0000 C   0  0  0  0  0  0  0  0  0  0  0  0
   -2.4175    2.5559    0.0000 C   0  0  0  0  0  0  0  0  0  0  0  0
    3.9933    0.8250    0.0000 C   0  0  0  0  0  0  0  0  0  0  0  0
    3.2789    1.2375    0.0000 C   0  0  0  0  0  0  0  0  0  0  0  0
    3.9933    0.0000    0.0000 C   0  0  0  0  0  0  0  0  0  0  0  0
    0.4699    1.8414    0.0000 C   0  0  0  0  0  0  0  0  0  0  0  0
    0.0574    2.5559    0.0000 C   0  0  0  0  0  0  0  0  0  0  0  0
   -0.7675    1.1269    0.0000 C   0  0  0  0  0  0  0  0  0  0  0  0
    0.0574   -0.3019    0.0000 C   0  0  0  0  0  0  0  0  0  0  0  0
    3.9933   -1.6500    0.0000 C   0  0  0  0  0  0  0  0  0  0  0  0
    0.0574    1.1269    0.0000 C   0  0  0  0  0  0  0  0  0  0  0  0
    2.5644    0.8250    0.0000 C   0  0  0  0  0  0  0  0  0  0  0  0
    3.2789   -0.4125    0.0000 C   0  0  0  0  0  0  0  0  0  0  0  0
    0.4699    0.4125    0.0000 C   0  0  0  0  0  0  0  0  0  0  0  0
   -0.7675    2.5559    0.0000 C   0  0  0  0  0  0  0  0  0  0  0  0
   -1.1800    1.8414    0.0000 C   0  0  0  0  0  0  0  0  0  0  0  0
    2.5644    0.0000    0.0000 C   0  0  0  0  0  0  0  0  0  0  0  0
    1.7798    1.0799    0.0000 C   0  0  0  0  0  0  0  0  0  0  0  0
    1.7798   -0.2549    0.0000 C   0  0  0  0  0  0  0  0  0  0  0  0
    3.2789   -1.2375    0.0000 N   0  0  0  0  0  0  0  0  0  0  0  0
    1.2949    0.4125    0.0000 N   0  0  0  0  0  0  0  0  0  0  0  0
    4.7078   -1.2375    0.0000 O   0  0  0  0  0  0  0  0  0  0  0  0
    1.5248    1.8645    0.0000 O   0  0  0  0  0  0  0  0  0  0  0  0
    1.5248   -1.0395    0.0000 O   0  0  0  0  0  0  0  0  0  0  0  0
   -0.7675    0.5230    0.0000 O   0  0  0  0  0  0  0  0  0  0  0  0
   -1.5925   -0.3019    0.0000 O   0  0  0  0  0  0  0  0  0  0  0  0
   -1.1800    3.2703    0.0000 O   0  0  0  0  0  0  0  0  0  0  0  0
   -2.0050    1.8414    0.0000 O   0  0  0  0  0  0  0  0  0  0  0  0
   -0.7675   -0.3019    0.0000 S   0  0  0  0  0  0  0  0  0  0  0  0
    0.0000    0.0000    0.0000 H   0  0  0  0  0  0  0  0  0  0  0  0
    0.0000    0.0000    0.0000 H   0  0  0  0  0  0  0  0  0  0  0  0
    0.0000    0.0000    0.0000 H   0  0  0  0  0  0  0  0  0  0  0  0
    0.0000    0.0000    0.0000 H   0  0  0  0  0  0  0  0  0  0  0  0
    0.0000    0.0000    0.0000 H   0  0  0  0  0  0  0  0  0  0  0  0
    0.0000    0.0000    0.0000 H   0  0  0  0  0  0  0  0  0  0  0  0
    0.0000    0.0000    0.0000 H   0  0  0  0  0  0  0  0  0  0  0  0
    0.0000    0.0000    0.0000 H   0  0  0  0  0  0  0  0  0  0  0  0
    0.0000    0.0000    0.0000 H   0  0  0  0  0  0  0  0  0  0  0  0
    0.0000    0.0000    0.0000 H   0  0  0  0  0  0  0  0  0  0  0  0
    0.0000    0.0000    0.0000 H   0  0  0  0  0  0  0  0  0  0  0  0
    0.0000    0.0000    0.0000 H   0  0  0  0  0  0  0  0  0  0  0  0
    0.0000    0.0000    0.0000 H   0  0  0  0  0  0  0  0  0  0  0  0
    0.0000    0.0000    0.0000 H   0  0  0  0  0  0  0  0  0  0  0  0
    0.0000    0.0000    0.0000 H   0  0  0  0  0  0  0  0  0  0  0  0
    0.0000    0.0000    0.0000 H   0  0  0  0  0  0  0  0  0  0  0  0
    0.0000    0.0000    0.0000 H   0  0  0  0  0  0  0  0  0  0  0  0
    0.0000    0.0000    0.0000 H   0  0  0  0  0  0  0  0  0  0  0  0
    0.0000    0.0000    0.0000 H   0  0  0  0  0  0  0  0  0  0  0  0
    0.0000    0.0000    0.0000 H   0  0  0  0  0  0  0  0  0  0  0  0
    0.0000    0.0000    0.0000 H   0  0  0  0  0  0  0  0  0  0  0  0
    0.0000    0.0000    0.0000 H   0  0  0  0  0  0  0  0  0  0  0  0
    0.0000    0.0000    0.0000 H   0  0  0  0  0  0  0  0  0  0  0  0
    0.0000    0.0000    0.0000 H   0  0  0  0  0  0  0  0  0  0  0  0
  5  1  1  0
  7  6  2  0
  8  6  1  0
 10  9  2  0
 13  2  1  0
 14  9  1  0
 14 11  2  0
 15  7  1  0
 16  8  2  0
 17 12  1  6
 17 14  1  0
 18 10  1  0
 19 11  1  0
 19 18  2  0
 20 15  2  0
 20 16  1  0
 21 15  1  0
 22 20  1  0
 23 13  2  3
 23 16  1  0
 17 24  1  0
 24 21  1  0
 24 22  1  0
 25 13  1  0
 26 21  2  0
 27 22  2  0
 30  3  1  0
 30 18  1  0
 31  5  1  0
 31 19  1  0
 32  4  1  0
 32 12  1  0
 32 28  2  0
 32 29  2  0
  1 33  1  0
  1 34  1  0
  1 35  1  0
  2 36  1  0
  2 37  1  0
  2 38  1  0
  3 39  1  0
  3 40  1  0
  3 41  1  0
  4 42  1  0
  4 43  1  0
  4 44  1  0
  5 45  1  0
  5 46  1  0
  6 47  1  0
  7 48  1  0
  8 49  1  0
  9 50  1  0
 10 51  1  0
 11 52  1  0
 12 53  1  0
 12 54  1  0
 17 55  1  0
 25 56  1  0
M  END
>  <ALOGPS_LOGP>  (1) 
1.79

>  <ALOGPS_LOGS>  (1) 
-3.96

>  <ALOGPS_SOLUBILITY>  (1) 
5.03e-02 g/l

>  <DATABASE_ID>  (1) 
DB05676

>  <DATABASE_NAME>  (1) 
drugbank

>  <DRUGBANK_ID>  (1) 
DB05676

>  <DRUG_GROUPS>  (1) 
approved; investigational

>  <EXACT_MASS>  (1) 
460.130422295

>  <FORMULA>  (1) 
C22H24N2O7S

>  <GENERIC_NAME>  (1) 
Apremilast

>  <INCHI_IDENTIFIER>  (1) 
InChI=1S/C22H24N2O7S/c1-5-31-19-11-14(9-10-18(19)30-3)17(12-32(4,28)29)24-21(26)15-7-6-8-16(23-13(2)25)20(15)22(24)27/h6-11,17H,5,12H2,1-4H3,(H,23,25)/t17-/m1/s1

>  <INCHI_KEY>  (1) 
IMOZEMNVLZVGJZ-QGZVFWFLSA-N

>  <JCHEM_ACCEPTOR_COUNT>  (1) 
8

>  <JCHEM_ATOM_COUNT>  (1) 
56

>  <JCHEM_AVERAGE_POLARIZABILITY>  (1) 
46.710822684531195

>  <JCHEM_BIOAVAILABILITY>  (1) 
1

>  <JCHEM_DONOR_COUNT>  (1) 
1

>  <JCHEM_FORMAL_CHARGE>  (1) 
0

>  <JCHEM_GHOSE_FILTER>  (1) 
1

>  <JCHEM_IUPAC>  (1) 
N-{2-[(1S)-1-(3-ethoxy-4-methoxyphenyl)-2-methanesulfonylethyl]-1,3-dioxo-2,3-dihydro-1H-isoindol-4-yl}ethanimidic acid

>  <JCHEM_LOGP>  (1) 
1.3876642833333332

>  <JCHEM_MDDR_LIKE_RULE>  (1) 
1

>  <JCHEM_NUMBER_OF_RINGS>  (1) 
3

>  <JCHEM_PHYSIOLOGICAL_CHARGE>  (1) 
0

>  <JCHEM_PKA_STRONGEST_ACIDIC>  (1) 
4.830302891875264

>  <JCHEM_PKA_STRONGEST_BASIC>  (1) 
-0.25353308163544364

>  <JCHEM_POLAR_SURFACE_AREA>  (1) 
122.57

>  <JCHEM_REFRACTIVITY>  (1) 
119.85479999999995

>  <JCHEM_ROTATABLE_BOND_COUNT>  (1) 
8

>  <JCHEM_RULE_OF_FIVE>  (1) 
1

>  <JCHEM_TRADITIONAL_IUPAC>  (1) 
N-{2-[(1S)-1-(3-ethoxy-4-methoxyphenyl)-2-methanesulfonylethyl]-1,3-dioxoisoindol-4-yl}ethanimidic acid

>  <JCHEM_VEBER_RULE>  (1) 
0

>  <MOLECULAR_WEIGHT>  (1) 
460.5

>  <PRODUCTS>  (1) 
Otezla

>  <SMILES>  (1) 
[H][C@](CS(C)(=O)=O)(N1C(=O)C2=C(C1=O)C(=CC=C2)N=C(C)O)C1=CC(OCC)=C(OC)C=C1

>  <SYNONYMS>  (1) 
Apremilast; Apr√©milast; Apremilastum; N-{2-[(1S)-1-(3-Ethoxy-4-methoxyphenyl)-2-(methylsulfonyl)ethyl]-1,3-dioxo-2,3-dihydro-1H-isoindol-4-yl}acetamide

$$$$
