
     RDKit          2D

102106  0  0  1  0  0  0  0  0999 V2000
    7.2607    0.1836    0.0000 O   0  0  0  0  0  0  0  0  0  0  0  0
    6.6001   -0.7254    0.0000 O   0  0  0  0  0  0  0  0  0  0  0  0
    5.7751   -3.5834    0.0000 O   0  0  0  0  0  0  0  0  0  0  0  0
    9.7238    1.8515    0.0000 O   0  0  0  0  0  0  0  0  0  0  0  0
    7.8548    2.9791    0.0000 O   0  0  0  0  0  0  0  0  0  0  0  0
    2.8876   -2.8689    0.0000 O   0  0  0  0  0  0  0  0  0  0  0  0
    7.8377   -1.4399    0.0000 N   0  0  0  0  0  0  0  0  0  0  0  0
    8.6197    0.6253    0.0000 N   0  0  0  0  0  0  0  0  0  0  0  0
    5.7751   -2.1545    0.0000 N   0  0  0  0  0  0  0  0  0  0  0  0
    4.1251   -2.1545    0.0000 N   0  0  0  0  0  0  0  0  0  0  0  0
    9.2139    3.4208    0.0000 N   0  0  0  0  0  0  0  0  0  0  0  0
    2.0625   -1.4399    0.0000 N   0  0  0  0  0  0  0  0  0  0  0  0
    2.8876   -0.0110    0.0000 N   0  0  0  0  0  0  0  0  0  0  0  0
    9.1072   -1.0274    0.0000 C   0  0  0  0  0  0  0  0  0  0  0  0
    9.1072   -1.8524    0.0000 C   0  0  0  0  0  0  0  0  0  0  0  0
    8.3226   -0.7725    0.0000 C   0  0  0  0  0  0  0  0  0  0  0  0
    9.8879   -0.7760    0.0000 C   0  0  0  0  0  0  0  0  0  0  0  0
    9.8879   -2.1039    0.0000 C   0  0  0  0  0  0  0  0  0  0  0  0
    8.3226   -2.1074    0.0000 C   0  0  0  0  0  0  0  0  0  0  0  0
   10.3694   -1.4399    0.0000 C   0  0  0  0  0  0  0  0  0  0  0  0
    8.0677    0.0121    0.0000 C   0  0  0  0  0  0  0  0  0  0  0  0
    7.0127   -1.4399    0.0000 C   0  0  0  0  0  0  0  0  0  0  0  0
    6.6001   -2.1545    0.0000 C   0  0  0  0  0  0  0  0  0  0  0  0
    7.0127   -2.8689    0.0000 C   0  0  0  0  0  0  0  0  0  0  0  0
    8.3648    1.4099    0.0000 C   0  0  0  0  0  0  0  0  0  0  0  0
    7.4252   -3.5834    0.0000 C   0  0  0  0  0  0  0  0  0  0  0  0
    6.2982   -3.2814    0.0000 C   0  0  0  0  0  0  0  0  0  0  0  0
    7.7271   -2.4564    0.0000 C   0  0  0  0  0  0  0  0  0  0  0  0
    4.1251   -3.5834    0.0000 C   0  0  0  0  0  0  0  0  0  0  0  0
    4.5376   -2.8689    0.0000 C   0  0  0  0  0  0  0  0  0  0  0  0
    5.3626   -2.8689    0.0000 C   0  0  0  0  0  0  0  0  0  0  0  0
    7.5577    1.5814    0.0000 C   0  0  0  0  0  0  0  0  0  0  0  0
    3.3001   -3.5834    0.0000 C   0  0  0  0  0  0  0  0  0  0  0  0
    4.5376   -4.2979    0.0000 C   0  0  0  0  0  0  0  0  0  0  0  0
    8.9168    2.0230    0.0000 C   0  0  0  0  0  0  0  0  0  0  0  0
    2.8876   -4.2979    0.0000 C   0  0  0  0  0  0  0  0  0  0  0  0
    4.1251   -5.0124    0.0000 C   0  0  0  0  0  0  0  0  0  0  0  0
    3.3001   -5.0124    0.0000 C   0  0  0  0  0  0  0  0  0  0  0  0
    8.9590    4.2054    0.0000 C   0  0  0  0  0  0  0  0  0  0  0  0
    7.3028    2.3661    0.0000 C   0  0  0  0  0  0  0  0  0  0  0  0
    9.1305    5.0124    0.0000 C   0  0  0  0  0  0  0  0  0  0  0  0
    8.3459    4.7575    0.0000 C   0  0  0  0  0  0  0  0  0  0  0  0
    8.6619    2.8076    0.0000 C   0  0  0  0  0  0  0  0  0  0  0  0
    6.4959    2.5376    0.0000 C   0  0  0  0  0  0  0  0  0  0  0  0
    3.3001   -2.1545    0.0000 C   0  0  0  0  0  0  0  0  0  0  0  0
    2.8876   -1.4399    0.0000 C   0  0  0  0  0  0  0  0  0  0  0  0
    3.3001   -0.7254    0.0000 C   0  0  0  0  0  0  0  0  0  0  0  0
    1.6500   -0.7254    0.0000 C   0  0  0  0  0  0  0  0  0  0  0  0
    2.0625   -0.0110    0.0000 C   0  0  0  0  0  0  0  0  0  0  0  0
    0.0000    0.0000    0.0000 H   0  0  0  0  0  0  0  0  0  0  0  0
    0.0000    0.0000    0.0000 H   0  0  0  0  0  0  0  0  0  0  0  0
    0.0000    0.0000    0.0000 H   0  0  0  0  0  0  0  0  0  0  0  0
    0.0000    0.0000    0.0000 H   0  0  0  0  0  0  0  0  0  0  0  0
    0.0000    0.0000    0.0000 H   0  0  0  0  0  0  0  0  0  0  0  0
    0.0000    0.0000    0.0000 H   0  0  0  0  0  0  0  0  0  0  0  0
    0.0000    0.0000    0.0000 H   0  0  0  0  0  0  0  0  0  0  0  0
    0.0000    0.0000    0.0000 H   0  0  0  0  0  0  0  0  0  0  0  0
    0.0000    0.0000    0.0000 H   0  0  0  0  0  0  0  0  0  0  0  0
    0.0000    0.0000    0.0000 H   0  0  0  0  0  0  0  0  0  0  0  0
    0.0000    0.0000    0.0000 H   0  0  0  0  0  0  0  0  0  0  0  0
    0.0000    0.0000    0.0000 H   0  0  0  0  0  0  0  0  0  0  0  0
    0.0000    0.0000    0.0000 H   0  0  0  0  0  0  0  0  0  0  0  0
    0.0000    0.0000    0.0000 H   0  0  0  0  0  0  0  0  0  0  0  0
    0.0000    0.0000    0.0000 H   0  0  0  0  0  0  0  0  0  0  0  0
    0.0000    0.0000    0.0000 H   0  0  0  0  0  0  0  0  0  0  0  0
    0.0000    0.0000    0.0000 H   0  0  0  0  0  0  0  0  0  0  0  0
    0.0000    0.0000    0.0000 H   0  0  0  0  0  0  0  0  0  0  0  0
    0.0000    0.0000    0.0000 H   0  0  0  0  0  0  0  0  0  0  0  0
    0.0000    0.0000    0.0000 H   0  0  0  0  0  0  0  0  0  0  0  0
    0.0000    0.0000    0.0000 H   0  0  0  0  0  0  0  0  0  0  0  0
    0.0000    0.0000    0.0000 H   0  0  0  0  0  0  0  0  0  0  0  0
    0.0000    0.0000    0.0000 H   0  0  0  0  0  0  0  0  0  0  0  0
    0.0000    0.0000    0.0000 H   0  0  0  0  0  0  0  0  0  0  0  0
    0.0000    0.0000    0.0000 H   0  0  0  0  0  0  0  0  0  0  0  0
    0.0000    0.0000    0.0000 H   0  0  0  0  0  0  0  0  0  0  0  0
    0.0000    0.0000    0.0000 H   0  0  0  0  0  0  0  0  0  0  0  0
    0.0000    0.0000    0.0000 H   0  0  0  0  0  0  0  0  0  0  0  0
    0.0000    0.0000    0.0000 H   0  0  0  0  0  0  0  0  0  0  0  0
    0.0000    0.0000    0.0000 H   0  0  0  0  0  0  0  0  0  0  0  0
    0.0000    0.0000    0.0000 H   0  0  0  0  0  0  0  0  0  0  0  0
    0.0000    0.0000    0.0000 H   0  0  0  0  0  0  0  0  0  0  0  0
    0.0000    0.0000    0.0000 H   0  0  0  0  0  0  0  0  0  0  0  0
    0.0000    0.0000    0.0000 H   0  0  0  0  0  0  0  0  0  0  0  0
    0.0000    0.0000    0.0000 H   0  0  0  0  0  0  0  0  0  0  0  0
    0.0000    0.0000    0.0000 H   0  0  0  0  0  0  0  0  0  0  0  0
    0.0000    0.0000    0.0000 H   0  0  0  0  0  0  0  0  0  0  0  0
    0.0000    0.0000    0.0000 H   0  0  0  0  0  0  0  0  0  0  0  0
    0.0000    0.0000    0.0000 H   0  0  0  0  0  0  0  0  0  0  0  0
    0.0000    0.0000    0.0000 H   0  0  0  0  0  0  0  0  0  0  0  0
    0.0000    0.0000    0.0000 H   0  0  0  0  0  0  0  0  0  0  0  0
    0.0000    0.0000    0.0000 H   0  0  0  0  0  0  0  0  0  0  0  0
    0.0000    0.0000    0.0000 H   0  0  0  0  0  0  0  0  0  0  0  0
    0.0000    0.0000    0.0000 H   0  0  0  0  0  0  0  0  0  0  0  0
    0.0000    0.0000    0.0000 H   0  0  0  0  0  0  0  0  0  0  0  0
    0.0000    0.0000    0.0000 H   0  0  0  0  0  0  0  0  0  0  0  0
    0.0000    0.0000    0.0000 H   0  0  0  0  0  0  0  0  0  0  0  0
    0.0000    0.0000    0.0000 H   0  0  0  0  0  0  0  0  0  0  0  0
    0.0000    0.0000    0.0000 H   0  0  0  0  0  0  0  0  0  0  0  0
    0.0000    0.0000    0.0000 H   0  0  0  0  0  0  0  0  0  0  0  0
    0.0000    0.0000    0.0000 H   0  0  0  0  0  0  0  0  0  0  0  0
    0.0000    0.0000    0.0000 H   0  0  0  0  0  0  0  0  0  0  0  0
    0.0000    0.0000    0.0000 H   0  0  0  0  0  0  0  0  0  0  0  0
  1 21  2  0
  2 22  2  0
  3 31  2  0
  4 35  2  0
  5 43  2  0
  6 45  2  0
  7 16  1  0
  7 19  1  0
  7 22  1  0
  8 21  1  0
 25  8  1  1
 23  9  1  6
  9 31  1  0
 30 10  1  6
 10 45  1  0
 11 39  1  0
 11 43  1  0
 12 46  2  0
 12 48  1  0
 13 47  2  0
 13 49  1  0
 14 15  1  0
 14 16  1  0
 14 17  1  0
 15 18  1  0
 15 19  1  0
 16 21  1  6
 17 20  1  0
 18 20  1  0
 22 23  1  0
 23 24  1  0
 24 26  1  0
 24 27  1  0
 24 28  1  0
 25 32  1  0
 25 35  1  0
 29 30  1  0
 29 33  1  0
 29 34  1  0
 30 31  1  0
 32 40  1  0
 33 36  1  0
 34 37  1  0
 35 43  1  0
 36 38  1  0
 37 38  1  0
 39 41  1  0
 39 42  1  0
 40 44  1  0
 41 42  1  0
 45 46  1  0
 46 47  1  0
 48 49  2  0
  8 50  1  0
  9 51  1  0
 10 52  1  0
 11 53  1  0
 14 54  1  6
 15 55  1  6
 16 56  1  0
 17 57  1  0
 17 58  1  0
 18 59  1  0
 18 60  1  0
 19 61  1  0
 19 62  1  0
 20 63  1  0
 20 64  1  0
 23 65  1  0
 25 66  1  0
 26 67  1  0
 26 68  1  0
 26 69  1  0
 27 70  1  0
 27 71  1  0
 27 72  1  0
 28 73  1  0
 28 74  1  0
 28 75  1  0
 29 76  1  0
 30 77  1  0
 32 78  1  0
 32 79  1  0
 33 80  1  0
 33 81  1  0
 34 82  1  0
 34 83  1  0
 36 84  1  0
 36 85  1  0
 37 86  1  0
 37 87  1  0
 38 88  1  0
 38 89  1  0
 39 90  1  0
 40 91  1  0
 40 92  1  0
 41 93  1  0
 41 94  1  0
 42 95  1  0
 42 96  1  0
 44 97  1  0
 44 98  1  0
 44 99  1  0
 47100  1  0
 48101  1  0
 49102  1  0
M  END
>  <ALOGPS_LOGP>  (1) 
2.56

>  <ALOGPS_LOGS>  (1) 
-4.28

>  <ALOGPS_SOLUBILITY>  (1) 
3.55e-02 g/l

>  <DATABASE_ID>  (1) 
DB05521

>  <DATABASE_NAME>  (1) 
drugbank

>  <DRUGBANK_ID>  (1) 
DB05521

>  <DRUG_GROUPS>  (1) 
approved; withdrawn

>  <EXACT_MASS>  (1) 
679.405732463

>  <FORMULA>  (1) 
C36H53N7O6

>  <GENERIC_NAME>  (1) 
Telaprevir

>  <INCHI_IDENTIFIER>  (1) 
InChI=1S/C36H53N7O6/c1-5-10-25(29(44)34(48)39-23-15-16-23)40-33(47)28-24-14-9-13-22(24)20-43(28)35(49)30(36(2,3)4)42-32(46)27(21-11-7-6-8-12-21)41-31(45)26-19-37-17-18-38-26/h17-19,21-25,27-28,30H,5-16,20H2,1-4H3,(H,39,48)(H,40,47)(H,41,45)(H,42,46)/t22-,24-,25-,27-,28-,30+/m0/s1

>  <INCHI_KEY>  (1) 
BBAWEDCPNXPBQM-GDEBMMAJSA-N

>  <JCHEM_ACCEPTOR_COUNT>  (1) 
8

>  <JCHEM_AVERAGE_POLARIZABILITY>  (1) 
74.36952961559653

>  <JCHEM_BIOAVAILABILITY>  (1) 
0

>  <JCHEM_DONOR_COUNT>  (1) 
4

>  <JCHEM_FORMAL_CHARGE>  (1) 
0

>  <JCHEM_GHOSE_FILTER>  (1) 
0

>  <JCHEM_IUPAC>  (1) 
(3S)-3-{[(1S,3aR,6aS)-2-[(2S)-2-[(2S)-2-cyclohexyl-2-(pyrazin-2-ylformamido)acetamido]-3,3-dimethylbutanoyl]-octahydrocyclopenta[c]pyrrol-1-yl]formamido}-N-cyclopropyl-2-oxohexanamide

>  <JCHEM_LOGP>  (1) 
2.580292300333334

>  <JCHEM_MDDR_LIKE_RULE>  (1) 
1

>  <JCHEM_NUMBER_OF_RINGS>  (1) 
5

>  <JCHEM_PHYSIOLOGICAL_CHARGE>  (1) 
0

>  <JCHEM_PKA>  (1) 
12.38745817101361

>  <JCHEM_PKA_STRONGEST_ACIDIC>  (1) 
11.857239072699072

>  <JCHEM_PKA_STRONGEST_BASIC>  (1) 
-0.6902823851666152

>  <JCHEM_POLAR_SURFACE_AREA>  (1) 
179.55999999999995

>  <JCHEM_REFRACTIVITY>  (1) 
180.04029999999997

>  <JCHEM_ROTATABLE_BOND_COUNT>  (1) 
14

>  <JCHEM_RULE_OF_FIVE>  (1) 
0

>  <JCHEM_TRADITIONAL_IUPAC>  (1) 
incivek

>  <JCHEM_VEBER_RULE>  (1) 
0

>  <MOLECULAR_WEIGHT>  (1) 
679.8493

>  <PRODUCTS>  (1) 
Incivek; Incivo

>  <SMILES>  (1) 
[H][C@@]12CCC[C@]1([H])[C@H](N(C2)C(=O)[C@@H](NC(=O)[C@@H](NC(=O)C1=NC=CN=C1)C1CCCCC1)C(C)(C)C)C(=O)N[C@@H](CCC)C(=O)C(=O)NC1CC1

$$$$
