
     RDKit          2D

 13  9  0  0  0  0  0  0  0  0999 V2000
    3.5872    0.4125    0.0000 Ga  0  0  0  0  0  0  0  0  0  0  0  0
    1.4290    1.2375    0.0000 O   0  0  0  0  0  0  0  0  0  0  0  0
    0.0000    1.2375    0.0000 O   0  0  0  0  0  0  0  0  0  0  0  0
    4.5079    3.7125    0.0000 O   0  0  0  0  0  0  0  0  0  0  0  0
    3.0790    3.7125    0.0000 O   0  0  0  0  0  0  0  0  0  0  0  0
    1.4290    4.1250    0.0000 O   0  0  0  0  0  0  0  0  0  0  0  0
    0.0000    4.1250    0.0000 O   0  0  0  0  0  0  0  0  0  0  0  0
    0.7144    0.0000    0.0000 O   0  0  0  0  0  0  0  0  0  0  0  0
    3.7934    2.4750    0.0000 O   0  0  0  0  0  0  0  0  0  0  0  0
    0.7144    2.8875    0.0000 O   0  0  0  0  0  0  0  0  0  0  0  0
    0.7144    0.8250    0.0000 N   0  0  0  0  0  0  0  0  0  0  0  0
    3.7934    3.3000    0.0000 N   0  0  0  0  0  0  0  0  0  0  0  0
    0.7144    3.7125    0.0000 N   0  0  0  0  0  0  0  0  0  0  0  0
  2 11  1  0
  3 11  1  0
  4 12  1  0
  5 12  1  0
  6 13  1  0
  7 13  1  0
  8 11  2  0
  9 12  2  0
 10 13  2  0
M  CHG  8   1   3   2  -1   3  -1   4  -1   5  -1   6  -1   7  -1  11   1
M  CHG  2  12   1  13   1
M  END
>  <DATABASE_ID>  (1) 
DB05260

>  <DATABASE_NAME>  (1) 
drugbank

>  <DRUGBANK_ID>  (1) 
DB05260

>  <DRUG_GROUPS>  (1) 
approved; investigational

>  <EXACT_MASS>  (1) 
254.889034525

>  <FORMULA>  (1) 
GaN3O9

>  <GENERIC_NAME>  (1) 
Gallium nitrate

>  <INCHI_IDENTIFIER>  (1) 
InChI=1S/Ga.3NO3/c;3*2-1(3)4/q+3;3*-1

>  <INCHI_KEY>  (1) 
CHPZKNULDCNCBW-UHFFFAOYSA-N

>  <JCHEM_ACCEPTOR_COUNT>  (1) 
3

>  <JCHEM_AVERAGE_POLARIZABILITY>  (1) 
3.239762129889275

>  <JCHEM_BIOAVAILABILITY>  (1) 
1

>  <JCHEM_DONOR_COUNT>  (1) 
0

>  <JCHEM_FORMAL_CHARGE>  (1) 
0

>  <JCHEM_GHOSE_FILTER>  (1) 
0

>  <JCHEM_IUPAC>  (1) 
gallium(3+) ion trinitrate

>  <JCHEM_LOGP>  (1) 
0.02841376366666668

>  <JCHEM_MDDR_LIKE_RULE>  (1) 
0

>  <JCHEM_NUMBER_OF_RINGS>  (1) 
0

>  <JCHEM_PHYSIOLOGICAL_CHARGE>  (1) 
-1

>  <JCHEM_PKA_STRONGEST_ACIDIC>  (1) 
-1.399990368988571

>  <JCHEM_PKA_STRONGEST_BASIC>  (1) 
-6.054117228555776

>  <JCHEM_POLAR_SURFACE_AREA>  (1) 
68.88

>  <JCHEM_REFRACTIVITY>  (1) 
9.8534

>  <JCHEM_ROTATABLE_BOND_COUNT>  (1) 
0

>  <JCHEM_RULE_OF_FIVE>  (1) 
1

>  <JCHEM_TRADITIONAL_IUPAC>  (1) 
gallium(3+) ion trinitrate

>  <JCHEM_VEBER_RULE>  (1) 
0

>  <MOLECULAR_WEIGHT>  (1) 
255.738

>  <PRODUCTS>  (1) 
Ganite

>  <SALTS>  (1) 
Gallium nitrate nonahydrate

>  <SMILES>  (1) 
[Ga+3].[O-][N+]([O-])=O.[O-][N+]([O-])=O.[O-][N+]([O-])=O

>  <SYNONYMS>  (1) 
Gallium nitrate (anhydrous); Nitric acid, gallium salt, anhydrate

$$$$
