
     RDKit          2D

 56 59  0  0  0  0  0  0  0  0999 V2000
    0.3452   -0.0868    0.0000 C   0  0  0  0  0  0  0  0  0  0  0  0
    1.0569   -0.5047    0.0000 C   0  0  0  0  0  0  0  0  0  0  0  0
   -0.3735   -0.4976    0.0000 C   0  0  0  0  0  0  0  0  0  0  0  0
    0.3523    0.7382    0.0000 C   0  0  0  0  0  0  0  0  0  0  0  0
    1.7686   -0.0939    0.0000 C   0  0  0  0  0  0  0  0  0  0  0  0
    1.0569   -1.3297    0.0000 C   0  0  0  0  0  0  0  0  0  0  0  0
   -0.3770   -1.3226    0.0000 C   0  0  0  0  0  0  0  0  0  0  0  0
   -1.0853   -0.0832    0.0000 C   0  0  0  0  0  0  0  0  0  0  0  0
    1.0711    1.1453    0.0000 C   0  0  0  0  0  0  0  0  0  0  0  0
    1.7793    0.7275    0.0000 C   0  0  0  0  0  0  0  0  0  0  0  0
    3.2345   -0.1115    0.0000 C   0  0  0  0  0  0  0  0  0  0  0  0
    0.3381   -1.7369    0.0000 C   0  0  0  0  0  0  0  0  0  0  0  0
   -1.0853   -1.7333    0.0000 C   0  0  0  0  0  0  0  0  0  0  0  0
   -1.8040   -0.4976    0.0000 C   0  0  0  0  0  0  0  0  0  0  0  0
    2.4946    1.1311    0.0000 C   0  0  0  0  0  0  0  0  0  0  0  0
    3.2027    0.7099    0.0000 C   0  0  0  0  0  0  0  0  0  0  0  0
   -1.8040   -1.3226    0.0000 C   0  0  0  0  0  0  0  0  0  0  0  0
   -2.5158   -0.0832    0.0000 C   0  0  0  0  0  0  0  0  0  0  0  0
    3.1744    1.5879    0.0000 C   0  0  0  0  0  0  0  0  0  0  0  0
    2.5052    2.1722    0.0000 O   0  0  0  0  0  0  0  0  0  0  0  0
   -2.5158   -1.7333    0.0000 O   0  0  0  0  0  0  0  0  0  0  0  0
   -3.2345   -0.4976    0.0000 O   0  0  0  0  0  0  0  0  0  0  0  0
    1.7793    1.5772    0.0000 C   0  0  0  0  0  0  0  0  0  0  0  0
   -0.3735    0.3519    0.0000 C   0  0  0  0  0  0  0  0  0  0  0  0
    0.0000    0.0000    0.0000 H   0  0  0  0  0  0  0  0  0  0  0  0
    0.0000    0.0000    0.0000 H   0  0  0  0  0  0  0  0  0  0  0  0
    0.0000    0.0000    0.0000 H   0  0  0  0  0  0  0  0  0  0  0  0
    0.0000    0.0000    0.0000 H   0  0  0  0  0  0  0  0  0  0  0  0
    0.0000    0.0000    0.0000 H   0  0  0  0  0  0  0  0  0  0  0  0
    0.0000    0.0000    0.0000 H   0  0  0  0  0  0  0  0  0  0  0  0
    0.0000    0.0000    0.0000 H   0  0  0  0  0  0  0  0  0  0  0  0
    0.0000    0.0000    0.0000 H   0  0  0  0  0  0  0  0  0  0  0  0
    0.0000    0.0000    0.0000 H   0  0  0  0  0  0  0  0  0  0  0  0
    0.0000    0.0000    0.0000 H   0  0  0  0  0  0  0  0  0  0  0  0
    0.0000    0.0000    0.0000 H   0  0  0  0  0  0  0  0  0  0  0  0
    0.0000    0.0000    0.0000 H   0  0  0  0  0  0  0  0  0  0  0  0
    0.0000    0.0000    0.0000 H   0  0  0  0  0  0  0  0  0  0  0  0
    0.0000    0.0000    0.0000 H   0  0  0  0  0  0  0  0  0  0  0  0
    0.0000    0.0000    0.0000 H   0  0  0  0  0  0  0  0  0  0  0  0
    0.0000    0.0000    0.0000 H   0  0  0  0  0  0  0  0  0  0  0  0
    0.0000    0.0000    0.0000 H   0  0  0  0  0  0  0  0  0  0  0  0
    0.0000    0.0000    0.0000 H   0  0  0  0  0  0  0  0  0  0  0  0
    0.0000    0.0000    0.0000 H   0  0  0  0  0  0  0  0  0  0  0  0
    0.0000    0.0000    0.0000 H   0  0  0  0  0  0  0  0  0  0  0  0
    0.0000    0.0000    0.0000 H   0  0  0  0  0  0  0  0  0  0  0  0
    0.0000    0.0000    0.0000 H   0  0  0  0  0  0  0  0  0  0  0  0
    0.0000    0.0000    0.0000 H   0  0  0  0  0  0  0  0  0  0  0  0
    0.0000    0.0000    0.0000 H   0  0  0  0  0  0  0  0  0  0  0  0
    0.0000    0.0000    0.0000 H   0  0  0  0  0  0  0  0  0  0  0  0
    0.0000    0.0000    0.0000 H   0  0  0  0  0  0  0  0  0  0  0  0
    0.0000    0.0000    0.0000 H   0  0  0  0  0  0  0  0  0  0  0  0
    0.0000    0.0000    0.0000 H   0  0  0  0  0  0  0  0  0  0  0  0
    0.0000    0.0000    0.0000 H   0  0  0  0  0  0  0  0  0  0  0  0
    0.0000    0.0000    0.0000 H   0  0  0  0  0  0  0  0  0  0  0  0
    0.0000    0.0000    0.0000 H   0  0  0  0  0  0  0  0  0  0  0  0
    0.0000    0.0000    0.0000 H   0  0  0  0  0  0  0  0  0  0  0  0
  1  2  1  0
  1  3  1  0
  1  4  1  0
  2  5  1  0
  2  6  1  0
  3  7  1  0
  3  8  1  0
  4  9  1  0
  5 10  1  0
  5 11  1  0
  6 12  1  0
  7 13  1  0
  8 14  1  0
 10 15  1  0
 11 16  1  0
 13 17  1  0
 14 18  2  0
 15 19  1  6
 15 20  1  0
 17 21  2  0
 18 22  1  0
  7 12  1  0
  9 10  1  0
 14 17  1  0
 15 16  1  0
 10 23  1  1
  3 24  1  1
  1 25  1  6
  2 26  1  1
  4 27  1  0
  4 28  1  0
  5 29  1  6
  6 30  1  0
  6 31  1  0
  7 32  1  6
  8 33  1  0
  8 34  1  0
  9 35  1  0
  9 36  1  0
 11 37  1  0
 11 38  1  0
 12 39  1  0
 12 40  1  0
 13 41  1  0
 13 42  1  0
 16 43  1  0
 16 44  1  0
 18 45  1  0
 19 46  1  0
 19 47  1  0
 19 48  1  0
 20 49  1  0
 22 50  1  0
 23 51  1  0
 23 52  1  0
 23 53  1  0
 24 54  1  0
 24 55  1  0
 24 56  1  0
M  END
>  <ALOGPS_LOGP>  (1) 
3.17

>  <ALOGPS_LOGS>  (1) 
-3.98

>  <ALOGPS_SOLUBILITY>  (1) 
3.49e-02 g/l

>  <DATABASE_ID>  (1) 
DB06412

>  <DATABASE_NAME>  (1) 
drugbank

>  <DRUGBANK_ID>  (1) 
DB06412

>  <DRUG_GROUPS>  (1) 
approved; illicit

>  <EXACT_MASS>  (1) 
332.23514489

>  <FORMULA>  (1) 
C21H32O3

>  <GENERIC_NAME>  (1) 
Oxymetholone

>  <INCHI_IDENTIFIER>  (1) 
InChI=1S/C21H32O3/c1-19-11-13(12-22)18(23)10-14(19)4-5-15-16(19)6-8-20(2)17(15)7-9-21(20,3)24/h12,14-17,22,24H,4-11H2,1-3H3/b13-12-/t14-,15+,16-,17-,19-,20-,21-/m0/s1

>  <INCHI_KEY>  (1) 
ICMWWNHDUZJFDW-DHODBPELSA-N

>  <INTERNATIONAL_BRANDS>  (1) 
Anapolon; Androlic; Hemogenin

>  <JCHEM_ACCEPTOR_COUNT>  (1) 
3

>  <JCHEM_ATOM_COUNT>  (1) 
56

>  <JCHEM_AVERAGE_POLARIZABILITY>  (1) 
38.841227530732965

>  <JCHEM_BIOAVAILABILITY>  (1) 
1

>  <JCHEM_DONOR_COUNT>  (1) 
2

>  <JCHEM_FORMAL_CHARGE>  (1) 
0

>  <JCHEM_GHOSE_FILTER>  (1) 
1

>  <JCHEM_IUPAC>  (1) 
(1S,2S,4Z,7S,10R,11S,14S,15S)-14-hydroxy-4-(hydroxymethylidene)-2,14,15-trimethyltetracyclo[8.7.0.0²,⁷.0¹¹,¹⁵]heptadecan-5-one

>  <JCHEM_LOGP>  (1) 
3.5527294793333324

>  <JCHEM_MDDR_LIKE_RULE>  (1) 
0

>  <JCHEM_NUMBER_OF_RINGS>  (1) 
4

>  <JCHEM_PHYSIOLOGICAL_CHARGE>  (1) 
0

>  <JCHEM_PKA_STRONGEST_ACIDIC>  (1) 
8.86524572678327

>  <JCHEM_PKA_STRONGEST_BASIC>  (1) 
-0.528089057342846

>  <JCHEM_POLAR_SURFACE_AREA>  (1) 
57.53

>  <JCHEM_REFRACTIVITY>  (1) 
94.59689999999999

>  <JCHEM_ROTATABLE_BOND_COUNT>  (1) 
0

>  <JCHEM_RULE_OF_FIVE>  (1) 
1

>  <JCHEM_TRADITIONAL_IUPAC>  (1) 
anadrol

>  <JCHEM_VEBER_RULE>  (1) 
0

>  <MOLECULAR_WEIGHT>  (1) 
332.484

>  <PRODUCTS>  (1) 
Anadrol-50; Anapolon 50; Anapolon 50 Tablets 50mg

>  <SMILES>  (1) 
[H][C@@]12CC[C@](C)(O)[C@@]1(C)CC[C@@]1([H])[C@@]2([H])CC[C@@]2([H])CC(=O)\C(C[C@]12C)=C/O

>  <SYNONYMS>  (1) 
17β-Hydroxy-2-hydroxymethylidene-17α-methyl-3-androstanone; Oximetolona; Oxymetholon; Oxymétholone; Oxymetholonum

$$$$
