
     RDKit          2D

 39 40  0  0  0  0  0  0  0  0999 V2000
   -3.1320    3.2559    0.0000 C   0  0  0  0  0  0  0  0  0  0  0  0
   -0.4871    4.7179    0.0000 C   0  0  0  0  0  0  0  0  0  0  0  0
   -3.0745    2.4329    0.0000 C   0  0  0  0  0  0  0  0  0  0  0  0
   -2.3635    0.4701    0.0000 C   0  0  0  0  0  0  0  0  0  0  0  0
   -2.3635    1.2951    0.0000 C   0  0  0  0  0  0  0  0  0  0  0  0
   -1.6490    0.0576    0.0000 C   0  0  0  0  0  0  0  0  0  0  0  0
   -0.8245    2.5614    0.0000 C   0  0  0  0  0  0  0  0  0  0  0  0
   -2.0862    3.2322    0.0000 C   0  0  0  0  0  0  0  0  0  0  0  0
   -0.4372    3.2898    0.0000 C   0  0  0  0  0  0  0  0  0  0  0  0
   -1.6989    3.9607    0.0000 C   0  0  0  0  0  0  0  0  0  0  0  0
   -0.9345    1.2951    0.0000 C   0  0  0  0  0  0  0  0  0  0  0  0
   -1.6490    1.7076    0.0000 C   0  0  0  0  0  0  0  0  0  0  0  0
   -0.9345    0.4701    0.0000 C   0  0  0  0  0  0  0  0  0  0  0  0
   -2.3330    2.0713    0.0000 C   0  0  0  0  0  0  0  0  0  0  0  0
   -1.6490    2.5326    0.0000 C   0  0  0  0  0  0  0  0  0  0  0  0
   -0.8744    3.9894    0.0000 N   0  0  0  0  0  0  0  0  0  0  0  0
   -0.2201    0.0576    0.0000 O   0  0  0  0  0  0  0  0  0  0  0  0
   -2.7701    1.3716    0.0000 O   0  0  0  0  0  0  0  0  0  0  0  0
    0.0000    0.0000    0.0000 H   0  0  0  0  0  0  0  0  0  0  0  0
    0.0000    0.0000    0.0000 H   0  0  0  0  0  0  0  0  0  0  0  0
    0.0000    0.0000    0.0000 H   0  0  0  0  0  0  0  0  0  0  0  0
    0.0000    0.0000    0.0000 H   0  0  0  0  0  0  0  0  0  0  0  0
    0.0000    0.0000    0.0000 H   0  0  0  0  0  0  0  0  0  0  0  0
    0.0000    0.0000    0.0000 H   0  0  0  0  0  0  0  0  0  0  0  0
    0.0000    0.0000    0.0000 H   0  0  0  0  0  0  0  0  0  0  0  0
    0.0000    0.0000    0.0000 H   0  0  0  0  0  0  0  0  0  0  0  0
    0.0000    0.0000    0.0000 H   0  0  0  0  0  0  0  0  0  0  0  0
    0.0000    0.0000    0.0000 H   0  0  0  0  0  0  0  0  0  0  0  0
    0.0000    0.0000    0.0000 H   0  0  0  0  0  0  0  0  0  0  0  0
    0.0000    0.0000    0.0000 H   0  0  0  0  0  0  0  0  0  0  0  0
    0.0000    0.0000    0.0000 H   0  0  0  0  0  0  0  0  0  0  0  0
    0.0000    0.0000    0.0000 H   0  0  0  0  0  0  0  0  0  0  0  0
    0.0000    0.0000    0.0000 H   0  0  0  0  0  0  0  0  0  0  0  0
    0.0000    0.0000    0.0000 H   0  0  0  0  0  0  0  0  0  0  0  0
    0.0000    0.0000    0.0000 H   0  0  0  0  0  0  0  0  0  0  0  0
    0.0000    0.0000    0.0000 H   0  0  0  0  0  0  0  0  0  0  0  0
    0.0000    0.0000    0.0000 H   0  0  0  0  0  0  0  0  0  0  0  0
    0.0000    0.0000    0.0000 H   0  0  0  0  0  0  0  0  0  0  0  0
    0.0000    0.0000    0.0000 H   0  0  0  0  0  0  0  0  0  0  0  0
  3  1  1  0
  5  4  2  0
  6  4  1  0
  9  7  1  0
 10  8  1  0
 12  5  1  0
 12 11  2  0
 13  6  2  0
 13 11  1  0
 14  3  1  0
 15  7  1  0
 15  8  1  0
 15 12  1  0
 15 14  1  0
 16  2  1  0
 16  9  1  0
 16 10  1  0
 17 13  1  0
 18 14  2  0
  1 19  1  0
  1 20  1  0
  1 21  1  0
  2 22  1  0
  2 23  1  0
  2 24  1  0
  3 25  1  0
  3 26  1  0
  4 27  1  0
  5 28  1  0
  6 29  1  0
  7 30  1  0
  7 31  1  0
  8 32  1  0
  8 33  1  0
  9 34  1  0
  9 35  1  0
 10 36  1  0
 10 37  1  0
 11 38  1  0
 17 39  1  0
M  END
>  <ALOGPS_LOGP>  (1) 
2.01

>  <ALOGPS_LOGS>  (1) 
-1.91

>  <ALOGPS_SOLUBILITY>  (1) 
3.01e+00 g/l

>  <DATABASE_ID>  (1) 
DB06738

>  <DATABASE_NAME>  (1) 
drugbank

>  <DRUGBANK_ID>  (1) 
DB06738

>  <DRUG_GROUPS>  (1) 
approved; investigational

>  <EXACT_MASS>  (1) 
247.157228921

>  <FORMULA>  (1) 
C15H21NO2

>  <GENERIC_NAME>  (1) 
Ketobemidone

>  <INCHI_IDENTIFIER>  (1) 
InChI=1S/C15H21NO2/c1-3-14(18)15(7-9-16(2)10-8-15)12-5-4-6-13(17)11-12/h4-6,11,17H,3,7-10H2,1-2H3

>  <INCHI_KEY>  (1) 
ALFGKMXHOUSVAD-UHFFFAOYSA-N

>  <INTERNATIONAL_BRANDS>  (1) 
Cliradon; Ketogan; Ketorax

>  <JCHEM_ACCEPTOR_COUNT>  (1) 
3

>  <JCHEM_AVERAGE_POLARIZABILITY>  (1) 
28.086664058158988

>  <JCHEM_BIOAVAILABILITY>  (1) 
1

>  <JCHEM_DONOR_COUNT>  (1) 
1

>  <JCHEM_FORMAL_CHARGE>  (1) 
0

>  <JCHEM_GHOSE_FILTER>  (1) 
1

>  <JCHEM_IUPAC>  (1) 
1-[4-(3-hydroxyphenyl)-1-methylpiperidin-4-yl]propan-1-one

>  <JCHEM_LOGP>  (1) 
2.4890444393718933

>  <JCHEM_MDDR_LIKE_RULE>  (1) 
0

>  <JCHEM_NUMBER_OF_RINGS>  (1) 
2

>  <JCHEM_PHYSIOLOGICAL_CHARGE>  (1) 
1

>  <JCHEM_PKA>  (1) 
19.153513074625966

>  <JCHEM_PKA_STRONGEST_ACIDIC>  (1) 
9.440829545784002

>  <JCHEM_PKA_STRONGEST_BASIC>  (1) 
8.08782210550823

>  <JCHEM_POLAR_SURFACE_AREA>  (1) 
40.54

>  <JCHEM_REFRACTIVITY>  (1) 
73.12490000000001

>  <JCHEM_ROTATABLE_BOND_COUNT>  (1) 
3

>  <JCHEM_RULE_OF_FIVE>  (1) 
1

>  <JCHEM_TRADITIONAL_IUPAC>  (1) 
ketobemidone

>  <JCHEM_VEBER_RULE>  (1) 
0

>  <MOLECULAR_WEIGHT>  (1) 
247.3327

>  <SALTS>  (1) 
Ketobemidone hydrochloride

>  <SMILES>  (1) 
CCC(=O)C1(CCN(C)CC1)C1=CC(O)=CC=C1

>  <SYNONYMS>  (1) 
Cetobemidona; Cetobemidone; Cetobemidonum

$$$$
