219090
     RDKit          2D

 63 66  0  0  1  0  0  0  0  0999 V2000
    8.5947   -3.9756    0.0000 P   0  0  0  0  0  0  0  0  0  0  0  0
    3.0790   -2.2299    0.0000 F   0  0  0  0  0  0  0  0  0  0  0  0
    1.6500    1.0702    0.0000 F   0  0  0  0  0  0  0  0  0  0  0  0
    2.7770    0.7682    0.0000 F   0  0  0  0  0  0  0  0  0  0  0  0
    1.9520    2.1972    0.0000 F   0  0  0  0  0  0  0  0  0  0  0  0
    3.7935    4.7828    0.0000 F   0  0  0  0  0  0  0  0  0  0  0  0
    4.6185    3.9578    0.0000 F   0  0  0  0  0  0  0  0  0  0  0  0
    2.9685    3.9578    0.0000 F   0  0  0  0  0  0  0  0  0  0  0  0
    6.6515    0.6577    0.0000 O   0  0  0  0  0  0  0  0  0  0  0  0
    5.2224    0.6577    0.0000 O   0  0  0  0  0  0  0  0  0  0  0  0
    9.4922   -2.4212    0.0000 O   0  0  0  0  0  0  0  0  0  0  0  0
    8.9303   -4.7293    0.0000 O   0  0  0  0  0  0  0  0  0  0  0  0
    9.3484   -3.6401    0.0000 O   0  0  0  0  0  0  0  0  0  0  0  0
    7.8411   -4.3112    0.0000 O   0  0  0  0  0  0  0  0  0  0  0  0
    6.6515   -0.9923    0.0000 N   0  0  0  0  0  0  0  0  0  0  0  0
    7.4521   -3.0504    0.0000 N   0  0  0  0  0  0  0  0  0  0  0  0
    8.1197   -1.8943    0.0000 N   0  0  0  0  0  0  0  0  0  0  0  0
    8.2592   -3.2219    0.0000 N   0  0  0  0  0  0  0  0  0  0  0  0
    5.9370   -0.5798    0.0000 C   0  0  0  0  0  0  0  0  0  0  0  0
    5.9370    0.2452    0.0000 C   0  0  0  0  0  0  0  0  0  0  0  0
    7.3659   -0.5798    0.0000 C   0  0  0  0  0  0  0  0  0  0  0  0
    7.3659    0.2452    0.0000 C   0  0  0  0  0  0  0  0  0  0  0  0
    6.6515   -1.8173    0.0000 C   0  0  0  0  0  0  0  0  0  0  0  0
    5.2224   -0.9923    0.0000 C   0  0  0  0  0  0  0  0  0  0  0  0
    5.2224    1.4827    0.0000 C   0  0  0  0  0  0  0  0  0  0  0  0
    7.3659   -2.2299    0.0000 C   0  0  0  0  0  0  0  0  0  0  0  0
    4.5080   -0.5798    0.0000 C   0  0  0  0  0  0  0  0  0  0  0  0
    5.2224   -1.8173    0.0000 C   0  0  0  0  0  0  0  0  0  0  0  0
    4.5080    1.8952    0.0000 C   0  0  0  0  0  0  0  0  0  0  0  0
    5.9370    1.8952    0.0000 C   0  0  0  0  0  0  0  0  0  0  0  0
    3.7935   -0.9923    0.0000 C   0  0  0  0  0  0  0  0  0  0  0  0
    4.5080   -2.2299    0.0000 C   0  0  0  0  0  0  0  0  0  0  0  0
    4.5080    2.7202    0.0000 C   0  0  0  0  0  0  0  0  0  0  0  0
    3.7935    1.4827    0.0000 C   0  0  0  0  0  0  0  0  0  0  0  0
    3.7935   -1.8173    0.0000 C   0  0  0  0  0  0  0  0  0  0  0  0
    8.6717   -2.5074    0.0000 C   0  0  0  0  0  0  0  0  0  0  0  0
    3.7935    3.1328    0.0000 C   0  0  0  0  0  0  0  0  0  0  0  0
    3.0790    1.8952    0.0000 C   0  0  0  0  0  0  0  0  0  0  0  0
    3.0790    2.7202    0.0000 C   0  0  0  0  0  0  0  0  0  0  0  0
    2.3645    1.4827    0.0000 C   0  0  0  0  0  0  0  0  0  0  0  0
    3.7935    3.9578    0.0000 C   0  0  0  0  0  0  0  0  0  0  0  0
    0.0000    0.0000    0.0000 H   0  0  0  0  0  0  0  0  0  0  0  0
    0.0000    0.0000    0.0000 H   0  0  0  0  0  0  0  0  0  0  0  0
    0.0000    0.0000    0.0000 H   0  0  0  0  0  0  0  0  0  0  0  0
    0.0000    0.0000    0.0000 H   0  0  0  0  0  0  0  0  0  0  0  0
    0.0000    0.0000    0.0000 H   0  0  0  0  0  0  0  0  0  0  0  0
    0.0000    0.0000    0.0000 H   0  0  0  0  0  0  0  0  0  0  0  0
    0.0000    0.0000    0.0000 H   0  0  0  0  0  0  0  0  0  0  0  0
    0.0000    0.0000    0.0000 H   0  0  0  0  0  0  0  0  0  0  0  0
    0.0000    0.0000    0.0000 H   0  0  0  0  0  0  0  0  0  0  0  0
    0.0000    0.0000    0.0000 H   0  0  0  0  0  0  0  0  0  0  0  0
    0.0000    0.0000    0.0000 H   0  0  0  0  0  0  0  0  0  0  0  0
    0.0000    0.0000    0.0000 H   0  0  0  0  0  0  0  0  0  0  0  0
    0.0000    0.0000    0.0000 H   0  0  0  0  0  0  0  0  0  0  0  0
    0.0000    0.0000    0.0000 H   0  0  0  0  0  0  0  0  0  0  0  0
    0.0000    0.0000    0.0000 H   0  0  0  0  0  0  0  0  0  0  0  0
    0.0000    0.0000    0.0000 H   0  0  0  0  0  0  0  0  0  0  0  0
    0.0000    0.0000    0.0000 H   0  0  0  0  0  0  0  0  0  0  0  0
    0.0000    0.0000    0.0000 H   0  0  0  0  0  0  0  0  0  0  0  0
    0.0000    0.0000    0.0000 H   0  0  0  0  0  0  0  0  0  0  0  0
    0.0000    0.0000    0.0000 H   0  0  0  0  0  0  0  0  0  0  0  0
    0.0000    0.0000    0.0000 H   0  0  0  0  0  0  0  0  0  0  0  0
    0.0000    0.0000    0.0000 H   0  0  0  0  0  0  0  0  0  0  0  0
  1 12  1  0
  1 13  1  0
  1 14  2  0
  1 18  1  0
  2 35  1  0
  3 40  1  0
  4 40  1  0
  5 40  1  0
  6 41  1  0
  7 41  1  0
  8 41  1  0
  9 20  1  0
  9 22  1  0
 20 10  1  1
 25 10  1  1
 11 36  2  0
 15 19  1  0
 15 21  1  0
 15 23  1  0
 16 18  1  0
 16 26  1  0
 17 26  2  0
 17 36  1  0
 18 36  1  0
 19 20  1  0
 19 24  1  1
 21 22  1  0
 23 26  1  0
 24 27  2  0
 24 28  1  0
 25 29  1  0
 25 30  1  0
 27 31  1  0
 28 32  2  0
 29 33  2  0
 29 34  1  0
 31 35  2  0
 32 35  1  0
 33 37  1  0
 34 38  2  0
 37 39  2  0
 37 41  1  0
 38 39  1  0
 38 40  1  0
 12 42  1  0
 13 43  1  0
 16 44  1  0
 19 45  1  0
 20 46  1  0
 21 47  1  0
 21 48  1  0
 22 49  1  0
 22 50  1  0
 23 51  1  0
 23 52  1  0
 25 53  1  0
 27 54  1  0
 28 55  1  0
 30 56  1  0
 30 57  1  0
 30 58  1  0
 31 59  1  0
 32 60  1  0
 33 61  1  0
 34 62  1  0
 39 63  1  0
M  END
>  <ALOGPS_LOGP>  (1) 
2.89

>  <ALOGPS_LOGS>  (1) 
-4.99

>  <ALOGPS_SOLUBILITY>  (1) 
6.32e-03 g/l

>  <DATABASE_ID>  (1) 
DB06717

>  <DATABASE_NAME>  (1) 
drugbank

>  <DRUGBANK_ID>  (1) 
DB06717

>  <DRUG_GROUPS>  (1) 
approved

>  <EXACT_MASS>  (1) 
614.116518403

>  <FORMULA>  (1) 
C23H22F7N4O6P

>  <GENERIC_NAME>  (1) 
Fosaprepitant

>  <INCHI_IDENTIFIER>  (1) 
InChI=1S/C23H22F7N4O6P/c1-12(14-8-15(22(25,26)27)10-16(9-14)23(28,29)30)40-20-19(13-2-4-17(24)5-3-13)33(6-7-39-20)11-18-31-21(35)34(32-18)41(36,37)38/h2-5,8-10,12,19-20H,6-7,11H2,1H3,(H,31,32,35)(H2,36,37,38)/t12-,19+,20-/m1/s1

>  <INCHI_KEY>  (1) 
BARDROPHSZEBKC-OITMNORJSA-N

>  <JCHEM_ACCEPTOR_COUNT>  (1) 
9

>  <JCHEM_AVERAGE_POLARIZABILITY>  (1) 
49.92109284745744

>  <JCHEM_BIOAVAILABILITY>  (1) 
1

>  <JCHEM_DONOR_COUNT>  (1) 
3

>  <JCHEM_FORMAL_CHARGE>  (1) 
0

>  <JCHEM_GHOSE_FILTER>  (1) 
0

>  <JCHEM_IUPAC>  (1) 
(3-{[(2R,3S)-2-[(1R)-1-[3,5-bis(trifluoromethyl)phenyl]ethoxy]-3-(4-fluorophenyl)morpholin-4-yl]methyl}-5-oxo-2,5-dihydro-1H-1,2,4-triazol-1-yl)phosphonic acid

>  <JCHEM_LOGP>  (1) 
2.4006789286538854

>  <JCHEM_MDDR_LIKE_RULE>  (1) 
1

>  <JCHEM_NUMBER_OF_RINGS>  (1) 
4

>  <JCHEM_PHYSIOLOGICAL_CHARGE>  (1) 
-2

>  <JCHEM_PKA>  (1) 
3.148697136990222

>  <JCHEM_PKA_STRONGEST_ACIDIC>  (1) 
1.0232240490887041

>  <JCHEM_PKA_STRONGEST_BASIC>  (1) 
5.689656532048464

>  <JCHEM_POLAR_SURFACE_AREA>  (1) 
123.92999999999999

>  <JCHEM_REFRACTIVITY>  (1) 
138.63040000000004

>  <JCHEM_ROTATABLE_BOND_COUNT>  (1) 
9

>  <JCHEM_RULE_OF_FIVE>  (1) 
0

>  <JCHEM_TRADITIONAL_IUPAC>  (1) 
fosaprepitant

>  <JCHEM_VEBER_RULE>  (1) 
0

>  <MOLECULAR_WEIGHT>  (1) 
614.4066

>  <PRODUCTS>  (1) 
Emend; Emend IV; Fosaprepitant; Ivemend

>  <SALTS>  (1) 
Fosaprepitant dimeglumine

>  <SMILES>  (1) 
C[C@@H](O[C@H]1OCCN(CC2=NC(=O)N(N2)P(O)(O)=O)[C@H]1C1=CC=C(F)C=C1)C1=CC(=CC(=C1)C(F)(F)F)C(F)(F)F

$$$$
