
     RDKit          2D

228240  0  0  1  0  0  0  0  0999 V2000
    5.1227   -1.0104    0.0000 Cl  0  0  0  0  0  0  0  0  0  0  0  0
    8.5789    3.9347    0.0000 Cl  0  0  0  0  0  0  0  0  0  0  0  0
    9.0824   -1.9349    0.0000 O   0  0  0  0  0  0  0  0  0  0  0  0
    7.9805   -1.0104    0.0000 O   0  0  0  0  0  0  0  0  0  0  0  0
    7.4809   -3.8435    0.0000 O   0  0  0  0  0  0  0  0  0  0  0  0
    4.4083    7.6682    0.0000 O   0  0  0  0  0  0  0  0  0  0  0  0
    9.1167   -4.1320    0.0000 O   0  0  0  0  0  0  0  0  0  0  0  0
    5.1275    6.4225    0.0000 O   0  0  0  0  0  0  0  0  0  0  0  0
    6.5660    8.9139    0.0000 O   0  0  0  0  0  0  0  0  0  0  0  0
    5.1275    9.7444    0.0000 O   0  0  0  0  0  0  0  0  0  0  0  0
    6.5660    7.2529    0.0000 O   0  0  0  0  0  0  0  0  0  0  0  0
   10.4683   -3.6400    0.0000 O   0  0  0  0  0  0  0  0  0  0  0  0
   10.7180   -2.2234    0.0000 O   0  0  0  0  0  0  0  0  0  0  0  0
    3.6891    9.7444    0.0000 O   0  0  0  0  0  0  0  0  0  0  0  0
    5.5612   -2.7747    0.0000 O   0  0  0  0  0  0  0  0  0  0  0  0
    6.5516   -0.1799    0.0000 O   0  0  0  0  0  0  0  0  0  0  0  0
    9.4093   -0.1799    0.0000 O   0  0  0  0  0  0  0  0  0  0  0  0
    2.2603    6.4225    0.0000 O   0  0  0  0  0  0  0  0  0  0  0  0
    3.1067    0.8828    0.0000 O   0  0  0  0  0  0  0  0  0  0  0  0
    5.8372    6.0128    0.0000 O   0  0  0  0  0  0  0  0  0  0  0  0
    7.2555    3.5379    0.0000 O   0  0  0  0  0  0  0  0  0  0  0  0
    2.2603    2.2922    0.0000 O   0  0  0  0  0  0  0  0  0  0  0  0
    4.3987    1.8882    0.0000 O   0  0  0  0  0  0  0  0  0  0  0  0
    4.8786    3.4805    0.0000 O   0  0  0  0  0  0  0  0  0  0  0  0
    9.3991    1.4646    0.0000 O   0  0  0  0  0  0  0  0  0  0  0  0
   11.5526    3.5380    0.0000 O   0  0  0  0  0  0  0  0  0  0  0  0
   10.6019    5.8515    0.0000 O   0  0  0  0  0  0  0  0  0  0  0  0
    8.6901    5.1850    0.0000 O   0  0  0  0  0  0  0  0  0  0  0  0
   13.7618    3.2484    0.0000 O   0  0  0  0  0  0  0  0  0  0  0  0
   12.2670    7.2502    0.0000 O   0  0  0  0  0  0  0  0  0  0  0  0
    6.9129   -2.2828    0.0000 N   0  0  0  0  0  0  0  0  0  0  0  0
    2.9794    3.5324    0.0000 N   0  0  0  0  0  0  0  0  0  0  0  0
    6.5516    2.2950    0.0000 N   0  0  0  0  0  0  0  0  0  0  0  0
    8.6948    2.7075    0.0000 N   0  0  0  0  0  0  0  0  0  0  0  0
    4.4083    2.7075    0.0000 N   0  0  0  0  0  0  0  0  0  0  0  0
    4.6453    5.0237    0.0000 N   0  0  0  0  0  0  0  0  0  0  0  0
   10.8381    2.2950    0.0000 N   0  0  0  0  0  0  0  0  0  0  0  0
   12.9815    2.7075    0.0000 N   0  0  0  0  0  0  0  0  0  0  0  0
    2.2838    4.2293    0.0000 N   0  0  0  0  0  0  0  0  0  0  0  0
   13.0657    4.1727    0.0000 N   0  0  0  0  0  0  0  0  0  0  0  0
    7.7307   -2.4269    0.0000 C   0  0  0  0  0  0  0  0  0  0  0  0
    8.0148   -3.2073    0.0000 C   0  0  0  0  0  0  0  0  0  0  0  0
    8.8326   -3.3516    0.0000 C   0  0  0  0  0  0  0  0  0  0  0  0
    8.2644   -1.7907    0.0000 C   0  0  0  0  0  0  0  0  0  0  0  0
    9.3663   -2.7154    0.0000 C   0  0  0  0  0  0  0  0  0  0  0  0
    5.8468    8.4987    0.0000 C   0  0  0  0  0  0  0  0  0  0  0  0
    5.1275    8.9139    0.0000 C   0  0  0  0  0  0  0  0  0  0  0  0
    5.8468    7.6682    0.0000 C   0  0  0  0  0  0  0  0  0  0  0  0
    4.4083    8.4987    0.0000 C   0  0  0  0  0  0  0  0  0  0  0  0
    5.1275    7.2529    0.0000 C   0  0  0  0  0  0  0  0  0  0  0  0
   10.1843   -2.8596    0.0000 C   0  0  0  0  0  0  0  0  0  0  0  0
    6.3790   -2.9190    0.0000 C   0  0  0  0  0  0  0  0  0  0  0  0
    3.6891    8.9139    0.0000 C   0  0  0  0  0  0  0  0  0  0  0  0
    6.6631   -3.6993    0.0000 C   0  0  0  0  0  0  0  0  0  0  0  0
    7.9805   -0.1799    0.0000 C   0  0  0  0  0  0  0  0  0  0  0  0
    6.1292   -4.3355    0.0000 C   0  0  0  0  0  0  0  0  0  0  0  0
    6.4132   -5.1159    0.0000 C   0  0  0  0  0  0  0  0  0  0  0  0
    5.8795   -5.7521    0.0000 C   0  0  0  0  0  0  0  0  0  0  0  0
    4.4083    6.0073    0.0000 C   0  0  0  0  0  0  0  0  0  0  0  0
    7.2660    0.2326    0.0000 C   0  0  0  0  0  0  0  0  0  0  0  0
    8.6948    0.2326    0.0000 C   0  0  0  0  0  0  0  0  0  0  0  0
    4.4083    5.1823    0.0000 C   0  0  0  0  0  0  0  0  0  0  0  0
    6.1634   -6.5325    0.0000 C   0  0  0  0  0  0  0  0  0  0  0  0
    7.9805    1.4701    0.0000 C   0  0  0  0  0  0  0  0  0  0  0  0
    3.6940    4.7698    0.0000 C   0  0  0  0  0  0  0  0  0  0  0  0
    5.6296   -7.1686    0.0000 C   0  0  0  0  0  0  0  0  0  0  0  0
    7.9805    2.2950    0.0000 C   0  0  0  0  0  0  0  0  0  0  0  0
    7.2660    1.0575    0.0000 C   0  0  0  0  0  0  0  0  0  0  0  0
    8.6948    1.0575    0.0000 C   0  0  0  0  0  0  0  0  0  0  0  0
    3.6940    3.9448    0.0000 C   0  0  0  0  0  0  0  0  0  0  0  0
    5.9138   -7.9491    0.0000 C   0  0  0  0  0  0  0  0  0  0  0  0
    5.1227    4.7698    0.0000 C   0  0  0  0  0  0  0  0  0  0  0  0
    3.6940    6.4197    0.0000 C   0  0  0  0  0  0  0  0  0  0  0  0
    5.8372    2.7075    0.0000 C   0  0  0  0  0  0  0  0  0  0  0  0
    5.3799   -8.5853    0.0000 C   0  0  0  0  0  0  0  0  0  0  0  0
    3.6940    2.2950    0.0000 C   0  0  0  0  0  0  0  0  0  0  0  0
    5.8372    3.5324    0.0000 C   0  0  0  0  0  0  0  0  0  0  0  0
    2.9794    5.1823    0.0000 C   0  0  0  0  0  0  0  0  0  0  0  0
    5.1227    3.9448    0.0000 C   0  0  0  0  0  0  0  0  0  0  0  0
    2.9794    6.0073    0.0000 C   0  0  0  0  0  0  0  0  0  0  0  0
    5.6639   -9.3657    0.0000 C   0  0  0  0  0  0  0  0  0  0  0  0
    7.2660    2.7075    0.0000 C   0  0  0  0  0  0  0  0  0  0  0  0
    3.6940    1.4701    0.0000 C   0  0  0  0  0  0  0  0  0  0  0  0
    2.9794    2.7075    0.0000 C   0  0  0  0  0  0  0  0  0  0  0  0
    5.8372    5.1823    0.0000 C   0  0  0  0  0  0  0  0  0  0  0  0
    5.1227    2.2950    0.0000 C   0  0  0  0  0  0  0  0  0  0  0  0
    4.4811    4.2096    0.0000 C   0  0  0  0  0  0  0  0  0  0  0  0
    6.5516    3.9448    0.0000 C   0  0  0  0  0  0  0  0  0  0  0  0
    4.4083    1.0575    0.0000 C   0  0  0  0  0  0  0  0  0  0  0  0
    5.8372    0.2326    0.0000 C   0  0  0  0  0  0  0  0  0  0  0  0
    6.5516    4.7698    0.0000 C   0  0  0  0  0  0  0  0  0  0  0  0
   10.1238    0.2326    0.0000 C   0  0  0  0  0  0  0  0  0  0  0  0
    5.1300  -10.0019    0.0000 C   0  0  0  0  0  0  0  0  0  0  0  0
    6.4818   -9.5098    0.0000 C   0  0  0  0  0  0  0  0  0  0  0  0
    9.4093    2.2950    0.0000 C   0  0  0  0  0  0  0  0  0  0  0  0
   10.1238    2.7075    0.0000 C   0  0  0  0  0  0  0  0  0  0  0  0
    4.4083    0.2326    0.0000 C   0  0  0  0  0  0  0  0  0  0  0  0
    5.1227    1.4701    0.0000 C   0  0  0  0  0  0  0  0  0  0  0  0
    5.1227   -0.1799    0.0000 C   0  0  0  0  0  0  0  0  0  0  0  0
    5.8372    1.0575    0.0000 C   0  0  0  0  0  0  0  0  0  0  0  0
    4.0223    5.5731    0.0000 C   0  0  0  0  0  0  0  0  0  0  0  0
   12.2670    2.2950    0.0000 C   0  0  0  0  0  0  0  0  0  0  0  0
   12.2670    1.4701    0.0000 C   0  0  0  0  0  0  0  0  0  0  0  0
   10.1238    1.0575    0.0000 C   0  0  0  0  0  0  0  0  0  0  0  0
   10.8381   -0.1799    0.0000 C   0  0  0  0  0  0  0  0  0  0  0  0
   11.5526    1.0575    0.0000 C   0  0  0  0  0  0  0  0  0  0  0  0
   10.1238    3.5324    0.0000 C   0  0  0  0  0  0  0  0  0  0  0  0
    3.2352    5.3082    0.0000 C   0  0  0  0  0  0  0  0  0  0  0  0
   11.5526    2.7075    0.0000 C   0  0  0  0  0  0  0  0  0  0  0  0
   10.8381    1.4701    0.0000 C   0  0  0  0  0  0  0  0  0  0  0  0
   11.5526    0.2326    0.0000 C   0  0  0  0  0  0  0  0  0  0  0  0
    3.0709    4.4942    0.0000 C   0  0  0  0  0  0  0  0  0  0  0  0
   10.8381    3.9448    0.0000 C   0  0  0  0  0  0  0  0  0  0  0  0
    9.4093    3.9448    0.0000 C   0  0  0  0  0  0  0  0  0  0  0  0
   12.9815    3.5324    0.0000 C   0  0  0  0  0  0  0  0  0  0  0  0
   10.8381    4.7698    0.0000 C   0  0  0  0  0  0  0  0  0  0  0  0
   12.2670    3.9448    0.0000 C   0  0  0  0  0  0  0  0  0  0  0  0
    9.4093    4.7698    0.0000 C   0  0  0  0  0  0  0  0  0  0  0  0
   10.1238    5.1823    0.0000 C   0  0  0  0  0  0  0  0  0  0  0  0
   12.2670    4.7698    0.0000 C   0  0  0  0  0  0  0  0  0  0  0  0
    1.6609    4.7787    0.0000 C   0  0  0  0  0  0  0  0  0  0  0  0
    2.1196    3.4153    0.0000 C   0  0  0  0  0  0  0  0  0  0  0  0
   11.5526    6.0073    0.0000 C   0  0  0  0  0  0  0  0  0  0  0  0
   11.5526    5.1823    0.0000 C   0  0  0  0  0  0  0  0  0  0  0  0
   12.9815    5.1823    0.0000 C   0  0  0  0  0  0  0  0  0  0  0  0
   12.2670    6.4197    0.0000 C   0  0  0  0  0  0  0  0  0  0  0  0
   12.9815    6.0073    0.0000 C   0  0  0  0  0  0  0  0  0  0  0  0
   13.6434    4.7694    0.0000 C   0  0  0  0  0  0  0  0  0  0  0  0
    0.0000    0.0000    0.0000 H   0  0  0  0  0  0  0  0  0  0  0  0
    0.0000    0.0000    0.0000 H   0  0  0  0  0  0  0  0  0  0  0  0
    0.0000    0.0000    0.0000 H   0  0  0  0  0  0  0  0  0  0  0  0
    0.0000    0.0000    0.0000 H   0  0  0  0  0  0  0  0  0  0  0  0
    0.0000    0.0000    0.0000 H   0  0  0  0  0  0  0  0  0  0  0  0
    0.0000    0.0000    0.0000 H   0  0  0  0  0  0  0  0  0  0  0  0
    0.0000    0.0000    0.0000 H   0  0  0  0  0  0  0  0  0  0  0  0
    0.0000    0.0000    0.0000 H   0  0  0  0  0  0  0  0  0  0  0  0
    0.0000    0.0000    0.0000 H   0  0  0  0  0  0  0  0  0  0  0  0
    0.0000    0.0000    0.0000 H   0  0  0  0  0  0  0  0  0  0  0  0
    0.0000    0.0000    0.0000 H   0  0  0  0  0  0  0  0  0  0  0  0
    0.0000    0.0000    0.0000 H   0  0  0  0  0  0  0  0  0  0  0  0
    0.0000    0.0000    0.0000 H   0  0  0  0  0  0  0  0  0  0  0  0
    0.0000    0.0000    0.0000 H   0  0  0  0  0  0  0  0  0  0  0  0
    0.0000    0.0000    0.0000 H   0  0  0  0  0  0  0  0  0  0  0  0
    0.0000    0.0000    0.0000 H   0  0  0  0  0  0  0  0  0  0  0  0
    0.0000    0.0000    0.0000 H   0  0  0  0  0  0  0  0  0  0  0  0
    0.0000    0.0000    0.0000 H   0  0  0  0  0  0  0  0  0  0  0  0
    0.0000    0.0000    0.0000 H   0  0  0  0  0  0  0  0  0  0  0  0
    0.0000    0.0000    0.0000 H   0  0  0  0  0  0  0  0  0  0  0  0
    0.0000    0.0000    0.0000 H   0  0  0  0  0  0  0  0  0  0  0  0
    0.0000    0.0000    0.0000 H   0  0  0  0  0  0  0  0  0  0  0  0
    0.0000    0.0000    0.0000 H   0  0  0  0  0  0  0  0  0  0  0  0
    0.0000    0.0000    0.0000 H   0  0  0  0  0  0  0  0  0  0  0  0
    0.0000    0.0000    0.0000 H   0  0  0  0  0  0  0  0  0  0  0  0
    0.0000    0.0000    0.0000 H   0  0  0  0  0  0  0  0  0  0  0  0
    0.0000    0.0000    0.0000 H   0  0  0  0  0  0  0  0  0  0  0  0
    0.0000    0.0000    0.0000 H   0  0  0  0  0  0  0  0  0  0  0  0
    0.0000    0.0000    0.0000 H   0  0  0  0  0  0  0  0  0  0  0  0
    0.0000    0.0000    0.0000 H   0  0  0  0  0  0  0  0  0  0  0  0
    0.0000    0.0000    0.0000 H   0  0  0  0  0  0  0  0  0  0  0  0
    0.0000    0.0000    0.0000 H   0  0  0  0  0  0  0  0  0  0  0  0
    0.0000    0.0000    0.0000 H   0  0  0  0  0  0  0  0  0  0  0  0
    0.0000    0.0000    0.0000 H   0  0  0  0  0  0  0  0  0  0  0  0
    0.0000    0.0000    0.0000 H   0  0  0  0  0  0  0  0  0  0  0  0
    0.0000    0.0000    0.0000 H   0  0  0  0  0  0  0  0  0  0  0  0
    0.0000    0.0000    0.0000 H   0  0  0  0  0  0  0  0  0  0  0  0
    0.0000    0.0000    0.0000 H   0  0  0  0  0  0  0  0  0  0  0  0
    0.0000    0.0000    0.0000 H   0  0  0  0  0  0  0  0  0  0  0  0
    0.0000    0.0000    0.0000 H   0  0  0  0  0  0  0  0  0  0  0  0
    0.0000    0.0000    0.0000 H   0  0  0  0  0  0  0  0  0  0  0  0
    0.0000    0.0000    0.0000 H   0  0  0  0  0  0  0  0  0  0  0  0
    0.0000    0.0000    0.0000 H   0  0  0  0  0  0  0  0  0  0  0  0
    0.0000    0.0000    0.0000 H   0  0  0  0  0  0  0  0  0  0  0  0
    0.0000    0.0000    0.0000 H   0  0  0  0  0  0  0  0  0  0  0  0
    0.0000    0.0000    0.0000 H   0  0  0  0  0  0  0  0  0  0  0  0
    0.0000    0.0000    0.0000 H   0  0  0  0  0  0  0  0  0  0  0  0
    0.0000    0.0000    0.0000 H   0  0  0  0  0  0  0  0  0  0  0  0
    0.0000    0.0000    0.0000 H   0  0  0  0  0  0  0  0  0  0  0  0
    0.0000    0.0000    0.0000 H   0  0  0  0  0  0  0  0  0  0  0  0
    0.0000    0.0000    0.0000 H   0  0  0  0  0  0  0  0  0  0  0  0
    0.0000    0.0000    0.0000 H   0  0  0  0  0  0  0  0  0  0  0  0
    0.0000    0.0000    0.0000 H   0  0  0  0  0  0  0  0  0  0  0  0
    0.0000    0.0000    0.0000 H   0  0  0  0  0  0  0  0  0  0  0  0
    0.0000    0.0000    0.0000 H   0  0  0  0  0  0  0  0  0  0  0  0
    0.0000    0.0000    0.0000 H   0  0  0  0  0  0  0  0  0  0  0  0
    0.0000    0.0000    0.0000 H   0  0  0  0  0  0  0  0  0  0  0  0
    0.0000    0.0000    0.0000 H   0  0  0  0  0  0  0  0  0  0  0  0
    0.0000    0.0000    0.0000 H   0  0  0  0  0  0  0  0  0  0  0  0
    0.0000    0.0000    0.0000 H   0  0  0  0  0  0  0  0  0  0  0  0
    0.0000    0.0000    0.0000 H   0  0  0  0  0  0  0  0  0  0  0  0
    0.0000    0.0000    0.0000 H   0  0  0  0  0  0  0  0  0  0  0  0
    0.0000    0.0000    0.0000 H   0  0  0  0  0  0  0  0  0  0  0  0
    0.0000    0.0000    0.0000 H   0  0  0  0  0  0  0  0  0  0  0  0
    0.0000    0.0000    0.0000 H   0  0  0  0  0  0  0  0  0  0  0  0
    0.0000    0.0000    0.0000 H   0  0  0  0  0  0  0  0  0  0  0  0
    0.0000    0.0000    0.0000 H   0  0  0  0  0  0  0  0  0  0  0  0
    0.0000    0.0000    0.0000 H   0  0  0  0  0  0  0  0  0  0  0  0
    0.0000    0.0000    0.0000 H   0  0  0  0  0  0  0  0  0  0  0  0
    0.0000    0.0000    0.0000 H   0  0  0  0  0  0  0  0  0  0  0  0
    0.0000    0.0000    0.0000 H   0  0  0  0  0  0  0  0  0  0  0  0
    0.0000    0.0000    0.0000 H   0  0  0  0  0  0  0  0  0  0  0  0
    0.0000    0.0000    0.0000 H   0  0  0  0  0  0  0  0  0  0  0  0
    0.0000    0.0000    0.0000 H   0  0  0  0  0  0  0  0  0  0  0  0
    0.0000    0.0000    0.0000 H   0  0  0  0  0  0  0  0  0  0  0  0
    0.0000    0.0000    0.0000 H   0  0  0  0  0  0  0  0  0  0  0  0
    0.0000    0.0000    0.0000 H   0  0  0  0  0  0  0  0  0  0  0  0
    0.0000    0.0000    0.0000 H   0  0  0  0  0  0  0  0  0  0  0  0
    0.0000    0.0000    0.0000 H   0  0  0  0  0  0  0  0  0  0  0  0
    0.0000    0.0000    0.0000 H   0  0  0  0  0  0  0  0  0  0  0  0
    0.0000    0.0000    0.0000 H   0  0  0  0  0  0  0  0  0  0  0  0
    0.0000    0.0000    0.0000 H   0  0  0  0  0  0  0  0  0  0  0  0
    0.0000    0.0000    0.0000 H   0  0  0  0  0  0  0  0  0  0  0  0
    0.0000    0.0000    0.0000 H   0  0  0  0  0  0  0  0  0  0  0  0
    0.0000    0.0000    0.0000 H   0  0  0  0  0  0  0  0  0  0  0  0
    0.0000    0.0000    0.0000 H   0  0  0  0  0  0  0  0  0  0  0  0
    0.0000    0.0000    0.0000 H   0  0  0  0  0  0  0  0  0  0  0  0
    0.0000    0.0000    0.0000 H   0  0  0  0  0  0  0  0  0  0  0  0
    0.0000    0.0000    0.0000 H   0  0  0  0  0  0  0  0  0  0  0  0
    0.0000    0.0000    0.0000 H   0  0  0  0  0  0  0  0  0  0  0  0
    0.0000    0.0000    0.0000 H   0  0  0  0  0  0  0  0  0  0  0  0
    0.0000    0.0000    0.0000 H   0  0  0  0  0  0  0  0  0  0  0  0
    0.0000    0.0000    0.0000 H   0  0  0  0  0  0  0  0  0  0  0  0
    0.0000    0.0000    0.0000 H   0  0  0  0  0  0  0  0  0  0  0  0
    0.0000    0.0000    0.0000 H   0  0  0  0  0  0  0  0  0  0  0  0
    0.0000    0.0000    0.0000 H   0  0  0  0  0  0  0  0  0  0  0  0
    0.0000    0.0000    0.0000 H   0  0  0  0  0  0  0  0  0  0  0  0
    0.0000    0.0000    0.0000 H   0  0  0  0  0  0  0  0  0  0  0  0
    0.0000    0.0000    0.0000 H   0  0  0  0  0  0  0  0  0  0  0  0
    0.0000    0.0000    0.0000 H   0  0  0  0  0  0  0  0  0  0  0  0
  1 99  1  0
  2114  1  0
  3 44  1  0
  3 45  1  0
 44  4  1  6
  4 55  1  0
 42  5  1  6
  6 49  1  0
  6 50  1  0
 43  7  1  6
 50  8  1  1
  8 59  1  0
 46  9  1  1
 47 10  1  6
 48 11  1  6
 12 51  1  0
 13 51  2  0
 14 53  1  0
 15 52  2  0
 16 60  1  0
 16 90  1  0
 17 61  1  0
 17 92  1  0
 18 80  1  0
 83 19  1  1
 20 85  1  0
 21 82  2  0
 22 84  2  0
 23 86  2  0
 24 87  2  0
 25 95  2  0
 26109  2  0
 27116  1  0
 27123  1  0
 28118  1  0
 29115  2  0
 30126  1  0
 41 31  1  1
 31 52  1  0
 32 70  1  0
 32 84  1  0
 33 74  1  0
 33 82  1  0
 34 67  1  0
 34 95  1  0
 35 76  1  0
 35 86  1  0
 36 87  1  0
 36101  1  0
 37 96  1  0
 37109  1  0
 38102  1  0
 38115  1  0
 39112  1  0
 39121  1  0
 39122  1  0
117 40  1  6
 40128  1  0
 41 42  1  0
 41 44  1  0
 42 43  1  0
 43 45  1  0
 45 51  1  1
 46 47  1  0
 46 48  1  0
 47 49  1  0
 48 50  1  0
 49 53  1  6
 52 54  1  0
 54 56  1  0
 55 60  1  0
 55 61  2  0
 56 57  1  0
 57 58  1  0
 58 63  1  0
 59 62  2  0
 59 73  1  0
 60 68  2  0
 61 69  1  0
 62 65  1  0
 62 72  1  0
 63 66  1  0
 64 67  1  0
 64 68  1  0
 64 69  2  0
 65 70  1  0
 65 78  2  0
 66 71  1  0
 67 82  1  0
 70 87  1  0
 71 75  1  0
 72 79  1  0
 72 85  2  0
 73 80  2  0
 74 77  1  0
 74 86  1  0
 75 81  1  0
 76 83  1  0
 76 84  1  0
 77 79  2  0
 77 88  1  0
 78 80  1  0
 81 93  1  0
 81 94  1  0
 83 89  1  0
 85 91  1  0
 88 91  2  0
 89 97  2  0
 89 98  1  0
 90 99  2  0
 90100  1  0
 92104  2  0
 92105  1  0
 95 96  1  0
 96107  1  0
 97 99  1  0
 98100  2  0
101108  1  0
102103  1  0
102109  1  0
103106  1  0
104110  1  0
105111  2  0
106110  2  0
106111  1  0
107113  2  0
107114  1  0
108112  1  0
113116  1  0
114118  2  0
115117  1  0
116119  2  0
117120  1  0
118119  1  0
120124  1  0
120125  2  0
123124  2  0
123126  1  0
125127  1  0
126127  2  0
  5129  1  0
  7130  1  0
  9131  1  0
 10132  1  0
 11133  1  0
 12134  1  0
 14135  1  0
 18136  1  0
 19137  1  0
 20138  1  0
 28139  1  0
 30140  1  0
 31141  1  0
 32142  1  0
 33143  1  0
 34144  1  0
 35145  1  0
 36146  1  0
 37147  1  0
 38148  1  0
 40149  1  0
 41150  1  0
 42151  1  0
 43152  1  0
 44153  1  0
 45154  1  0
 46155  1  0
 47156  1  0
 48157  1  0
 49158  1  0
 50159  1  0
 53160  1  0
 53161  1  0
 54162  1  0
 54163  1  0
 56164  1  0
 56165  1  0
 57166  1  0
 57167  1  0
 58168  1  0
 58169  1  0
 63170  1  0
 63171  1  0
 66172  1  0
 66173  1  0
 67174  1  1
 68175  1  0
 69176  1  0
 70177  1  0
 71178  1  0
 71179  1  0
 73180  1  0
 74181  1  6
 75182  1  0
 75183  1  0
 76184  1  6
 78185  1  0
 79186  1  0
 81187  1  0
 83188  1  0
 88189  1  0
 91190  1  0
 93191  1  0
 93192  1  0
 93193  1  0
 94194  1  0
 94195  1  0
 94196  1  0
 96197  1  1
 97198  1  0
 98199  1  0
100200  1  0
101201  1  0
101202  1  0
102203  1  1
103204  1  0
103205  1  0
104206  1  0
105207  1  0
108208  1  0
108209  1  0
110210  1  0
111211  1  0
112212  1  0
112213  1  0
113214  1  0
117215  1  0
119216  1  0
121217  1  0
121218  1  0
121219  1  0
122220  1  0
122221  1  0
122222  1  0
124223  1  0
125224  1  0
127225  1  0
128226  1  0
128227  1  0
128228  1  0
M  END
>  <ALOGPS_LOGP>  (1) 
3.58

>  <ALOGPS_LOGS>  (1) 
-4.05

>  <ALOGPS_SOLUBILITY>  (1) 
1.61e-01 g/l

>  <DATABASE_ID>  (1) 
DB06219

>  <DATABASE_NAME>  (1) 
drugbank

>  <DRUGBANK_ID>  (1) 
DB06219

>  <DRUG_GROUPS>  (1) 
approved

>  <EXACT_MASS>  (1) 
1814.60855808

>  <FORMULA>  (1) 
C88H100Cl2N10O28

>  <GENERIC_NAME>  (1) 
Dalbavancin

>  <INCHI_IDENTIFIER>  (1) 
InChI=1S/C88H100Cl2N10O28/c1-38(2)13-10-8-6-7-9-11-14-61(106)94-70-73(109)75(111)78(86(120)121)128-87(70)127-77-58-31-43-32-59(77)124-55-24-19-42(29-50(55)89)71(107)69-85(119)98-67(80(114)92-25-12-26-100(4)5)48-33-44(102)34-57(125-88-76(112)74(110)72(108)60(37-101)126-88)62(48)47-28-40(17-22-52(47)103)65(82(116)99-69)95-83(117)66(43)96-84(118)68-49-35-46(36-54(105)63(49)90)123-56-30-41(18-23-53(56)104)64(91-3)81(115)93-51(79(113)97-68)27-39-15-20-45(122-58)21-16-39/h15-24,28-36,38,51,60,64-76,78,87-88,91,101-105,107-112H,6-14,25-27,37H2,1-5H3,(H,92,114)(H,93,115)(H,94,106)(H,95,117)(H,96,118)(H,97,113)(H,98,119)(H,99,116)(H,120,121)/t51-,60-,64-,65-,66-,67?,68+,69+,70-,71-,72-,73-,74+,75+,76+,78+,87-,88+/m1/s1

>  <INCHI_KEY>  (1) 
KGPGQDLTDHGEGT-VBZOGQDBSA-N

>  <INTERNATIONAL_BRANDS>  (1) 
Zeven

>  <JCHEM_ACCEPTOR_COUNT>  (1) 
27

>  <JCHEM_AVERAGE_POLARIZABILITY>  (1) 
181.82718565976552

>  <JCHEM_BIOAVAILABILITY>  (1) 
0

>  <JCHEM_DONOR_COUNT>  (1) 
21

>  <JCHEM_FORMAL_CHARGE>  (1) 
0

>  <JCHEM_GHOSE_FILTER>  (1) 
0

>  <JCHEM_IUPAC>  (1) 
(2S,3S,4R,5R,6S)-6-{[(1S,2R,19R,22R,34S,37R,40R)-5,32-dichloro-52-{[3-(dimethylamino)propyl]carbamoyl}-2,26,31,44,49-pentahydroxy-22-(methylamino)-21,35,38,54,56,59-hexaoxo-47-{[(2R,3S,4S,5S,6R)-3,4,5-trihydroxy-6-(hydroxymethyl)oxan-2-yl]oxy}-7,13,28-trioxa-20,36,39,53,55,58-hexaazaundecacyclo[38.14.2.2³,⁶.2¹⁴,¹⁷.2¹⁹,³⁴.1⁸,¹².1²³,²⁷.1²⁹,³³.1⁴¹,⁴⁵.0¹⁰,³⁷.0⁴⁶,⁵¹]hexahexaconta-3,5,8,10,12(64),14,16,23(61),24,26,29(60),30,32,41(57),42,44,46(51),47,49,62,65-henicosaen-64-yl]oxy}-3,4-dihydroxy-5-(10-methylundecanamido)oxane-2-carboxylic acid

>  <JCHEM_LOGP>  (1) 
-0.6098173719363835

>  <JCHEM_MDDR_LIKE_RULE>  (1) 
1

>  <JCHEM_NUMBER_OF_RINGS>  (1) 
13

>  <JCHEM_PHYSIOLOGICAL_CHARGE>  (1) 
1

>  <JCHEM_PKA>  (1) 
7.7204142977022885

>  <JCHEM_PKA_STRONGEST_ACIDIC>  (1) 
2.3663620687060174

>  <JCHEM_PKA_STRONGEST_BASIC>  (1) 
9.490075153790649

>  <JCHEM_POLAR_SURFACE_AREA>  (1) 
572.5099999999998

>  <JCHEM_REFRACTIVITY>  (1) 
450.7878000000001

>  <JCHEM_ROTATABLE_BOND_COUNT>  (1) 
22

>  <JCHEM_RULE_OF_FIVE>  (1) 
0

>  <JCHEM_TRADITIONAL_IUPAC>  (1) 
(2S,3S,4R,5R,6S)-6-{[(1S,2R,19R,22R,34S,37R,40R)-5,32-dichloro-52-{[3-(dimethylamino)propyl]carbamoyl}-2,26,31,44,49-pentahydroxy-22-(methylamino)-21,35,38,54,56,59-hexaoxo-47-{[(2R,3S,4S,5S,6R)-3,4,5-trihydroxy-6-(hydroxymethyl)oxan-2-yl]oxy}-7,13,28-trioxa-20,36,39,53,55,58-hexaazaundecacyclo[38.14.2.2³,⁶.2¹⁴,¹⁷.2¹⁹,³⁴.1⁸,¹².1²³,²⁷.1²⁹,³³.1⁴¹,⁴⁵.0¹⁰,³⁷.0⁴⁶,⁵¹]hexahexaconta-3,5,8,10,12(64),14,16,23(61),24,26,29(60),30,32,41(57),42,44,46(51),47,49,62,65-henicosaen-64-yl]oxy}-3,4-dihydroxy-5-(10-methylundecanamido)oxane-2-carboxylic acid

>  <JCHEM_VEBER_RULE>  (1) 
0

>  <MOLECULAR_WEIGHT>  (1) 
1816.692

>  <PRODUCTS>  (1) 
Dalvance; Xydalba

>  <SALTS>  (1) 
Dalbavancin b0 hydrochloride; Dalbavancin Hydrochloride

>  <SMILES>  (1) 
[H][C@@]12CC3=CC=C(OC4=C(O[C@@H]5O[C@@H]([C@@H](O)[C@H](O)[C@H]5NC(=O)CCCCCCCCC(C)C)C(O)=O)C5=CC(=C4)[C@@]([H])(NC(=O)[C@@]([H])(NC1=O)C1=C(Cl)C(O)=CC(OC4=C(O)C=CC(=C4)[C@@H](NC)C(=O)N2)=C1)C(=O)N[C@]1([H])C2=CC(=C(O)C=C2)C2=C(C=C(O)C=C2O[C@H]2O[C@H](CO)[C@@H](O)[C@H](O)[C@@H]2O)C(NC(=O)[C@@]([H])(NC1=O)[C@H](O)C1=CC(Cl)=C(O5)C=C1)C(=O)NCCCN(C)C)C=C3

>  <SYNONYMS>  (1) 
5,31-dichloro-38-de(methoxycarbonyl)-7-demethyl-19-deoxy-56-O­ [2-deoxy-2-[(10-methylundecanoyl)amino]-β-D-glucopyranuronosyl]-38-[[3-(dimethylamino)propyl] carbamoyl]-42-O-α-D-mannopyranosyl-15-N-methyl(ristomycin A aglycone) hydrochloride; dalbavancin B0

$$$$
