
     RDKit          2D

 36 36  0  0  0  0  0  0  0  0999 V2000
   -1.0131    0.4280    0.0000 C   0  0  0  0  0  0  0  0  0  0  0  0
   -1.0131    1.1780    0.0000 P   0  0  0  0  0  0  0  0  0  0  0  0
   -1.0131   -0.3180    0.0000 P   0  0  0  0  0  0  0  0  0  0  0  0
   -0.2356    0.3652    0.0000 N   0  0  0  0  0  0  0  0  0  0  0  0
   -0.3063    1.2370    0.0000 O   0  0  0  0  0  0  0  0  0  0  0  0
   -0.2709   -0.3258    0.0000 O   0  0  0  0  0  0  0  0  0  0  0  0
   -1.0170    1.9202    0.0000 O   0  0  0  0  0  0  0  0  0  0  0  0
   -1.0170   -1.0680    0.0000 O   0  0  0  0  0  0  0  0  0  0  0  0
   -1.7671   -0.3141    0.0000 O   0  0  0  0  0  0  0  0  0  0  0  0
   -1.7671    1.1780    0.0000 O   0  0  0  0  0  0  0  0  0  0  0  0
    0.2945   -0.2669    0.0000 C   0  0  0  0  0  0  0  0  0  0  0  0
    1.0838   -0.0666    0.0000 C   0  0  0  0  0  0  0  0  0  0  0  0
   -0.0510   -1.0209    0.0000 C   0  0  0  0  0  0  0  0  0  0  0  0
    1.7435   -0.5655    0.0000 C   0  0  0  0  0  0  0  0  0  0  0  0
    0.3258   -1.7553    0.0000 C   0  0  0  0  0  0  0  0  0  0  0  0
    1.7671   -1.3901    0.0000 C   0  0  0  0  0  0  0  0  0  0  0  0
    1.1309   -1.9202    0.0000 C   0  0  0  0  0  0  0  0  0  0  0  0
    0.0000    0.0000    0.0000 H   0  0  0  0  0  0  0  0  0  0  0  0
    0.0000    0.0000    0.0000 H   0  0  0  0  0  0  0  0  0  0  0  0
    0.0000    0.0000    0.0000 H   0  0  0  0  0  0  0  0  0  0  0  0
    0.0000    0.0000    0.0000 H   0  0  0  0  0  0  0  0  0  0  0  0
    0.0000    0.0000    0.0000 H   0  0  0  0  0  0  0  0  0  0  0  0
    0.0000    0.0000    0.0000 H   0  0  0  0  0  0  0  0  0  0  0  0
    0.0000    0.0000    0.0000 H   0  0  0  0  0  0  0  0  0  0  0  0
    0.0000    0.0000    0.0000 H   0  0  0  0  0  0  0  0  0  0  0  0
    0.0000    0.0000    0.0000 H   0  0  0  0  0  0  0  0  0  0  0  0
    0.0000    0.0000    0.0000 H   0  0  0  0  0  0  0  0  0  0  0  0
    0.0000    0.0000    0.0000 H   0  0  0  0  0  0  0  0  0  0  0  0
    0.0000    0.0000    0.0000 H   0  0  0  0  0  0  0  0  0  0  0  0
    0.0000    0.0000    0.0000 H   0  0  0  0  0  0  0  0  0  0  0  0
    0.0000    0.0000    0.0000 H   0  0  0  0  0  0  0  0  0  0  0  0
    0.0000    0.0000    0.0000 H   0  0  0  0  0  0  0  0  0  0  0  0
    0.0000    0.0000    0.0000 H   0  0  0  0  0  0  0  0  0  0  0  0
    0.0000    0.0000    0.0000 H   0  0  0  0  0  0  0  0  0  0  0  0
    0.0000    0.0000    0.0000 H   0  0  0  0  0  0  0  0  0  0  0  0
    0.0000    0.0000    0.0000 H   0  0  0  0  0  0  0  0  0  0  0  0
  2  1  1  0
  3  1  1  0
  4  1  1  0
  5  2  2  0
  6  3  2  0
  7  2  1  0
  8  3  1  0
  9  3  1  0
 10  2  1  0
 11  4  1  0
 12 11  1  0
 13 11  1  0
 14 12  1  0
 15 13  1  0
 16 14  1  0
 17 15  1  0
 16 17  1  0
  1 18  1  0
  4 19  1  0
  7 20  1  0
  8 21  1  0
  9 22  1  0
 10 23  1  0
 11 24  1  0
 12 25  1  0
 12 26  1  0
 13 27  1  0
 13 28  1  0
 14 29  1  0
 14 30  1  0
 15 31  1  0
 15 32  1  0
 16 33  1  0
 16 34  1  0
 17 35  1  0
 17 36  1  0
M  END
>  <ALOGPS_LOGP>  (1) 
-0.06

>  <ALOGPS_LOGS>  (1) 
-1.36

>  <ALOGPS_SOLUBILITY>  (1) 
1.25e+01 g/l

>  <DATABASE_ID>  (1) 
DB06255

>  <DATABASE_NAME>  (1) 
drugbank

>  <DRUGBANK_ID>  (1) 
DB06255

>  <DRUG_GROUPS>  (1) 
approved; investigational

>  <EXACT_MASS>  (1) 
287.068761332

>  <FORMULA>  (1) 
C8H19NO6P2

>  <GENERIC_NAME>  (1) 
Incadronic acid

>  <INCHI_IDENTIFIER>  (1) 
InChI=1S/C8H19NO6P2/c10-16(11,12)8(17(13,14)15)9-7-5-3-1-2-4-6-7/h7-9H,1-6H2,(H2,10,11,12)(H2,13,14,15)

>  <INCHI_KEY>  (1) 
LWRDQHOZTAOILO-UHFFFAOYSA-N

>  <INTERNATIONAL_BRANDS>  (1) 
Bisphonal; Yin Fu

>  <JCHEM_ACCEPTOR_COUNT>  (1) 
7

>  <JCHEM_ATOM_COUNT>  (1) 
36

>  <JCHEM_AVERAGE_POLARIZABILITY>  (1) 
25.083742742310708

>  <JCHEM_BIOAVAILABILITY>  (1) 
1

>  <JCHEM_DONOR_COUNT>  (1) 
5

>  <JCHEM_FORMAL_CHARGE>  (1) 
0

>  <JCHEM_GHOSE_FILTER>  (1) 
0

>  <JCHEM_IUPAC>  (1) 
[(cycloheptylamino)(phosphono)methyl]phosphonic acid

>  <JCHEM_LOGP>  (1) 
-1.3763154756938276

>  <JCHEM_MDDR_LIKE_RULE>  (1) 
0

>  <JCHEM_NUMBER_OF_RINGS>  (1) 
1

>  <JCHEM_PHYSIOLOGICAL_CHARGE>  (1) 
-2

>  <JCHEM_PKA>  (1) 
-0.3925495993388095

>  <JCHEM_PKA_STRONGEST_ACIDIC>  (1) 
-1.1347254333989136

>  <JCHEM_PKA_STRONGEST_BASIC>  (1) 
5.567876959443684

>  <JCHEM_POLAR_SURFACE_AREA>  (1) 
127.09000000000002

>  <JCHEM_REFRACTIVITY>  (1) 
61.7702

>  <JCHEM_ROTATABLE_BOND_COUNT>  (1) 
4

>  <JCHEM_RULE_OF_FIVE>  (1) 
1

>  <JCHEM_TRADITIONAL_IUPAC>  (1) 
incadronic acid

>  <JCHEM_VEBER_RULE>  (1) 
0

>  <MOLECULAR_WEIGHT>  (1) 
287.189

>  <SALTS>  (1) 
Disodium incadronate

>  <SMILES>  (1) 
OP(O)(=O)C(NC1CCCCCC1)P(O)(O)=O

>  <SYNONYMS>  (1) 
Cimadronate; Incadronate

$$$$
