
     RDKit          2D

 53 55  0  0  0  0  0  0  0  0999 V2000
    6.1792  -24.6708    0.0000 C   0  0  0  0  0  0  0  0  0  0  0  0
    6.1792  -25.4958    0.0000 C   0  0  0  0  0  0  0  0  0  0  0  0
    6.8912  -25.9042    0.0000 C   0  0  0  0  0  0  0  0  0  0  0  0
    7.6032  -25.4958    0.0000 C   0  0  0  0  0  0  0  0  0  0  0  0
    7.6032  -24.6708    0.0000 C   0  0  0  0  0  0  0  0  0  0  0  0
    6.8912  -24.2542    0.0000 O   0  0  0  0  0  0  0  0  0  0  0  0
    8.3189  -24.2604    0.0000 C   0  0  0  0  0  0  0  0  0  0  0  0
    5.4635  -24.2604    0.0000 C   0  0  0  0  0  0  0  0  0  0  0  0
    8.3171  -25.9094    0.0000 O   0  0  0  0  0  0  0  0  0  0  0  0
    5.4653  -25.9094    0.0000 O   0  0  0  0  0  0  0  0  0  0  0  0
    6.8912  -26.7291    0.0000 O   0  0  0  0  0  0  0  0  0  0  0  0
    5.4611  -23.4354    0.0000 O   0  0  0  0  0  0  0  0  0  0  0  0
    9.0288  -24.6788    0.0000 C   0  0  0  0  0  0  0  0  0  0  0  0
    9.7439  -24.2691    0.0000 C   0  0  0  0  0  0  0  0  0  0  0  0
    9.7468  -23.4432    0.0000 C   0  0  0  0  0  0  0  0  0  0  0  0
    9.0285  -23.0288    0.0000 C   0  0  0  0  0  0  0  0  0  0  0  0
    8.3163  -23.4409    0.0000 C   0  0  0  0  0  0  0  0  0  0  0  0
   10.4619  -23.0319    0.0000 Cl  0  0  0  0  0  0  0  0  0  0  0  0
   10.4570  -24.6840    0.0000 C   0  0  0  0  0  0  0  0  0  0  0  0
   11.1729  -24.2740    0.0000 C   0  0  0  0  0  0  0  0  0  0  0  0
   11.8817  -24.6920    0.0000 C   0  0  0  0  0  0  0  0  0  0  0  0
   12.5971  -24.2826    0.0000 C   0  0  0  0  0  0  0  0  0  0  0  0
   12.6004  -23.4568    0.0000 C   0  0  0  0  0  0  0  0  0  0  0  0
   11.8823  -23.0420    0.0000 C   0  0  0  0  0  0  0  0  0  0  0  0
   11.1698  -23.4538    0.0000 C   0  0  0  0  0  0  0  0  0  0  0  0
   13.3157  -23.0458    0.0000 O   0  0  0  0  0  0  0  0  0  0  0  0
   14.0293  -23.4598    0.0000 C   0  0  0  0  0  0  0  0  0  0  0  0
   14.7446  -23.0488    0.0000 C   0  0  0  0  0  0  0  0  0  0  0  0
    0.0000    0.0000    0.0000 H   0  0  0  0  0  0  0  0  0  0  0  0
    0.0000    0.0000    0.0000 H   0  0  0  0  0  0  0  0  0  0  0  0
    0.0000    0.0000    0.0000 H   0  0  0  0  0  0  0  0  0  0  0  0
    0.0000    0.0000    0.0000 H   0  0  0  0  0  0  0  0  0  0  0  0
    0.0000    0.0000    0.0000 H   0  0  0  0  0  0  0  0  0  0  0  0
    0.0000    0.0000    0.0000 H   0  0  0  0  0  0  0  0  0  0  0  0
    0.0000    0.0000    0.0000 H   0  0  0  0  0  0  0  0  0  0  0  0
    0.0000    0.0000    0.0000 H   0  0  0  0  0  0  0  0  0  0  0  0
    0.0000    0.0000    0.0000 H   0  0  0  0  0  0  0  0  0  0  0  0
    0.0000    0.0000    0.0000 H   0  0  0  0  0  0  0  0  0  0  0  0
    0.0000    0.0000    0.0000 H   0  0  0  0  0  0  0  0  0  0  0  0
    0.0000    0.0000    0.0000 H   0  0  0  0  0  0  0  0  0  0  0  0
    0.0000    0.0000    0.0000 H   0  0  0  0  0  0  0  0  0  0  0  0
    0.0000    0.0000    0.0000 H   0  0  0  0  0  0  0  0  0  0  0  0
    0.0000    0.0000    0.0000 H   0  0  0  0  0  0  0  0  0  0  0  0
    0.0000    0.0000    0.0000 H   0  0  0  0  0  0  0  0  0  0  0  0
    0.0000    0.0000    0.0000 H   0  0  0  0  0  0  0  0  0  0  0  0
    0.0000    0.0000    0.0000 H   0  0  0  0  0  0  0  0  0  0  0  0
    0.0000    0.0000    0.0000 H   0  0  0  0  0  0  0  0  0  0  0  0
    0.0000    0.0000    0.0000 H   0  0  0  0  0  0  0  0  0  0  0  0
    0.0000    0.0000    0.0000 H   0  0  0  0  0  0  0  0  0  0  0  0
    0.0000    0.0000    0.0000 H   0  0  0  0  0  0  0  0  0  0  0  0
    0.0000    0.0000    0.0000 H   0  0  0  0  0  0  0  0  0  0  0  0
    0.0000    0.0000    0.0000 H   0  0  0  0  0  0  0  0  0  0  0  0
    0.0000    0.0000    0.0000 H   0  0  0  0  0  0  0  0  0  0  0  0
 13 14  2  0
  5  7  1  1
 14 15  1  0
  1  2  1  0
 15 16  2  0
  1  8  1  1
 16 17  1  0
 17  7  2  0
  1  6  1  0
 15 18  1  0
  4  9  1  1
 14 19  1  0
  2  3  1  0
 19 20  1  0
  2 10  1  6
 20 21  2  0
  3  4  1  0
 21 22  1  0
  3 11  1  6
 22 23  2  0
  4  5  1  0
 23 24  1  0
  8 12  1  0
 24 25  2  0
 25 20  1  0
  5  6  1  0
 23 26  1  0
  7 13  1  0
 26 27  1  0
 27 28  1  0
  1 29  1  0
  2 30  1  0
  3 31  1  0
  4 32  1  0
  5 33  1  0
  8 34  1  0
  8 35  1  0
  9 36  1  0
 10 37  1  0
 11 38  1  0
 12 39  1  0
 13 40  1  0
 16 41  1  0
 17 42  1  0
 19 43  1  0
 19 44  1  0
 21 45  1  0
 22 46  1  0
 24 47  1  0
 25 48  1  0
 27 49  1  0
 27 50  1  0
 28 51  1  0
 28 52  1  0
 28 53  1  0
M  END
>  <ALOGPS_LOGP>  (1) 
2.52

>  <ALOGPS_LOGS>  (1) 
-3.37

>  <ALOGPS_SOLUBILITY>  (1) 
1.73e-01 g/l

>  <DATABASE_ID>  (1) 
DB06292

>  <DATABASE_NAME>  (1) 
drugbank

>  <DRUGBANK_ID>  (1) 
DB06292

>  <DRUG_GROUPS>  (1) 
approved

>  <EXACT_MASS>  (1) 
408.133966239

>  <FORMULA>  (1) 
C21H25ClO6

>  <GENERIC_NAME>  (1) 
Dapagliflozin

>  <INCHI_IDENTIFIER>  (1) 
InChI=1S/C21H25ClO6/c1-2-27-15-6-3-12(4-7-15)9-14-10-13(5-8-16(14)22)21-20(26)19(25)18(24)17(11-23)28-21/h3-8,10,17-21,23-26H,2,9,11H2,1H3/t17-,18-,19+,20-,21+/m1/s1

>  <INCHI_KEY>  (1) 
JVHXJTBJCFBINQ-ADAARDCZSA-N

>  <JCHEM_ACCEPTOR_COUNT>  (1) 
6

>  <JCHEM_AVERAGE_POLARIZABILITY>  (1) 
42.357378599658446

>  <JCHEM_BIOAVAILABILITY>  (1) 
1

>  <JCHEM_DONOR_COUNT>  (1) 
4

>  <JCHEM_FORMAL_CHARGE>  (1) 
0

>  <JCHEM_GHOSE_FILTER>  (1) 
1

>  <JCHEM_IUPAC>  (1) 
(2S,3R,4R,5S,6R)-2-{4-chloro-3-[(4-ethoxyphenyl)methyl]phenyl}-6-(hydroxymethyl)oxane-3,4,5-triol

>  <JCHEM_LOGP>  (1) 
2.1109003033333336

>  <JCHEM_MDDR_LIKE_RULE>  (1) 
1

>  <JCHEM_NUMBER_OF_RINGS>  (1) 
3

>  <JCHEM_PHYSIOLOGICAL_CHARGE>  (1) 
0

>  <JCHEM_PKA>  (1) 
13.456757261629466

>  <JCHEM_PKA_STRONGEST_ACIDIC>  (1) 
12.56788240171166

>  <JCHEM_PKA_STRONGEST_BASIC>  (1) 
-2.979190369034347

>  <JCHEM_POLAR_SURFACE_AREA>  (1) 
99.38000000000001

>  <JCHEM_REFRACTIVITY>  (1) 
104.93010000000001

>  <JCHEM_ROTATABLE_BOND_COUNT>  (1) 
6

>  <JCHEM_RULE_OF_FIVE>  (1) 
1

>  <JCHEM_TRADITIONAL_IUPAC>  (1) 
dapagliflozin

>  <JCHEM_VEBER_RULE>  (1) 
0

>  <MOLECULAR_WEIGHT>  (1) 
408.873

>  <PRODUCTS>  (1) 
Edistride; Farxiga; Forxiga; Qtern; Xigduo; Xigduo XR

>  <SALTS>  (1) 
Dapagliflozin propanediol monohydrate

>  <SMILES>  (1) 
CCOC1=CC=C(CC2=C(Cl)C=CC(=C2)[C@@H]2O[C@H](CO)[C@@H](O)[C@H](O)[C@H]2O)C=C1

>  <SYNONYMS>  (1) 
(2S,3R,4R,5S,6R)-2-(4-Chloro-3-(4-ethoxybenzyl)phenyl)-6- (hydroxymethyl)tetrahydro-2H-pyran-3,4,5-triol

$$$$
