Betaine.mol
     RDKit          2D

 19 18  0  0  0  0  0  0  0  0999 V2000
   -1.4289   -0.4678    0.0000 O   0  0  0  0  0  0  0  0  0  0  0  0
   -0.7145   -0.0553    0.0000 C   0  0  0  0  0  0  0  0  0  0  0  0
   -0.7145    0.7697    0.0000 O   0  0  0  0  0  0  0  0  0  0  0  0
    0.0000   -0.4678    0.0000 C   0  0  0  0  0  0  0  0  0  0  0  0
    0.7145   -0.0553    0.0000 N   0  0  0  0  0  0  0  0  0  0  0  0
    0.3020    0.6592    0.0000 C   0  0  0  0  0  0  0  0  0  0  0  0
    1.4289    0.3572    0.0000 C   0  0  0  0  0  0  0  0  0  0  0  0
    1.1270   -0.7697    0.0000 C   0  0  0  0  0  0  0  0  0  0  0  0
    0.0000    0.0000    0.0000 H   0  0  0  0  0  0  0  0  0  0  0  0
    0.0000    0.0000    0.0000 H   0  0  0  0  0  0  0  0  0  0  0  0
    0.0000    0.0000    0.0000 H   0  0  0  0  0  0  0  0  0  0  0  0
    0.0000    0.0000    0.0000 H   0  0  0  0  0  0  0  0  0  0  0  0
    0.0000    0.0000    0.0000 H   0  0  0  0  0  0  0  0  0  0  0  0
    0.0000    0.0000    0.0000 H   0  0  0  0  0  0  0  0  0  0  0  0
    0.0000    0.0000    0.0000 H   0  0  0  0  0  0  0  0  0  0  0  0
    0.0000    0.0000    0.0000 H   0  0  0  0  0  0  0  0  0  0  0  0
    0.0000    0.0000    0.0000 H   0  0  0  0  0  0  0  0  0  0  0  0
    0.0000    0.0000    0.0000 H   0  0  0  0  0  0  0  0  0  0  0  0
    0.0000    0.0000    0.0000 H   0  0  0  0  0  0  0  0  0  0  0  0
  1  2  1  0
  2  3  2  0
  2  4  1  0
  4  5  1  0
  5  6  1  0
  5  7  1  0
  5  8  1  0
  4  9  1  0
  4 10  1  0
  6 11  1  0
  6 12  1  0
  6 13  1  0
  7 14  1  0
  7 15  1  0
  7 16  1  0
  8 17  1  0
  8 18  1  0
  8 19  1  0
M  CHG  2   1  -1   5   1
M  END
>  <ALOGPS_LOGP>  (1) 
-2.70

>  <ALOGPS_LOGS>  (1) 
-1.96

>  <ALOGPS_SOLUBILITY>  (1) 
1.86e+00 g/l

>  <DATABASE_ID>  (1) 
DB06756

>  <DATABASE_NAME>  (1) 
drugbank

>  <DRUGBANK_ID>  (1) 
DB06756

>  <DRUG_GROUPS>  (1) 
approved; nutraceutical

>  <EXACT_MASS>  (1) 
117.078978601

>  <FORMULA>  (1) 
C5H11NO2

>  <GENERIC_NAME>  (1) 
Glycine betaine

>  <INCHI_IDENTIFIER>  (1) 
InChI=1S/C5H11NO2/c1-6(2,3)4-5(7)8/h4H2,1-3H3

>  <INCHI_KEY>  (1) 
KWIUHFFTVRNATP-UHFFFAOYSA-N

>  <JCHEM_ACCEPTOR_COUNT>  (1) 
2

>  <JCHEM_AVERAGE_POLARIZABILITY>  (1) 
12.10962349652031

>  <JCHEM_BIOAVAILABILITY>  (1) 
1

>  <JCHEM_DONOR_COUNT>  (1) 
0

>  <JCHEM_FORMAL_CHARGE>  (1) 
0

>  <JCHEM_GHOSE_FILTER>  (1) 
0

>  <JCHEM_IUPAC>  (1) 
2-(trimethylazaniumyl)acetate

>  <JCHEM_LOGP>  (1) 
-4.494183842471745

>  <JCHEM_MDDR_LIKE_RULE>  (1) 
0

>  <JCHEM_NUMBER_OF_RINGS>  (1) 
0

>  <JCHEM_PHYSIOLOGICAL_CHARGE>  (1) 
0

>  <JCHEM_PKA_STRONGEST_ACIDIC>  (1) 
2.2595637800263866

>  <JCHEM_POLAR_SURFACE_AREA>  (1) 
40.129999999999995

>  <JCHEM_REFRACTIVITY>  (1) 
52.8234

>  <JCHEM_ROTATABLE_BOND_COUNT>  (1) 
2

>  <JCHEM_RULE_OF_FIVE>  (1) 
1

>  <JCHEM_TRADITIONAL_IUPAC>  (1) 
Bet

>  <JCHEM_VEBER_RULE>  (1) 
0

>  <MOLECULAR_WEIGHT>  (1) 
117.1463

>  <PRODUCTS>  (1) 
ATONO2 Oxygen Baby; Acididyn Tab; Bemosin Tab; Betacol; Betaine HCl Tab 500mg; Betaine HCl and Pepsin; Betasin Tab; Cystadane; Dr.g Pore Purifing Toner; EnBrace HR; EnLyte; Face It Hd Perfect Bb Spf30 Pa 01; Face It Hd Perfect Bb Spf30 Pa 02; Glutamic Acid HCl Betaine HCl W Pepsin; Glutamic Acid Pepsin and Betaine Tablets; Neo Life Beta Gest Tab; PramLyte; Stomach Aid-digestive Aid; Zypanax

>  <SALTS>  (1) 
Betaine citrate; Betaine hydrochloride

>  <SMILES>  (1) 
C[N+](C)(C)CC([O-])=O

>  <SYNONYMS>  (1) 
2-(Trimethylammonio)Acetate; 2-N,N,N-trimethylammonio acetate; 2-trimethylammonioacetate; abromine; acidol; Betaine; Glycinebetaine; N,N,N-trimethylammonioacetate; N,N,N-Trimethylglycine; TMG; Trimethylaminoacetate; Trimethylammonioacetate; Trimethylglycine; trimethylglycocoll

$$$$
