
     RDKit          2D

 49 44  0  0  0  0  0  0  0  0999 V2000
    2.1434    7.7783    0.0000 C   0  0  0  0  0  0  0  0  0  0  0  0
    1.4289    8.1908    0.0000 C   0  0  0  0  0  0  0  0  0  0  0  0
    0.7145    7.7783    0.0000 N   0  0  0  0  0  0  0  0  0  0  0  0
    0.0000    8.1908    0.0000 C   0  0  0  0  0  0  0  0  0  0  0  0
    0.0000    9.0158    0.0000 C   0  0  0  0  0  0  0  0  0  0  0  0
   -0.7145    9.4283    0.0000 O   0  0  0  0  0  0  0  0  0  0  0  0
    0.7145    9.4283    0.0000 O   0  0  0  0  0  0  0  0  0  0  0  0
    0.7145    6.9533    0.0000 C   0  0  0  0  0  0  0  0  0  0  0  0
    0.0000    6.5408    0.0000 C   0  0  0  0  0  0  0  0  0  0  0  0
   -0.7145    6.9533    0.0000 O   0  0  0  0  0  0  0  0  0  0  0  0
    0.0000    5.7158    0.0000 O   0  0  0  0  0  0  0  0  0  0  0  0
    2.8579    8.1908    0.0000 N   0  0  0  0  0  0  0  0  0  0  0  0
    3.5724    7.7783    0.0000 C   0  0  0  0  0  0  0  0  0  0  0  0
    4.2868    8.1908    0.0000 C   0  0  0  0  0  0  0  0  0  0  0  0
    5.0013    7.7783    0.0000 N   0  0  0  0  0  0  0  0  0  0  0  0
    5.7158    8.1908    0.0000 C   0  0  0  0  0  0  0  0  0  0  0  0
    5.7158    9.0158    0.0000 C   0  0  0  0  0  0  0  0  0  0  0  0
    6.4302    9.4283    0.0000 O   0  0  0  0  0  0  0  0  0  0  0  0
    5.0013    9.4283    0.0000 O   0  0  0  0  0  0  0  0  0  0  0  0
    5.0013    6.9533    0.0000 C   0  0  0  0  0  0  0  0  0  0  0  0
    5.7158    6.5408    0.0000 C   0  0  0  0  0  0  0  0  0  0  0  0
    6.4302    6.9533    0.0000 O   0  0  0  0  0  0  0  0  0  0  0  0
    5.7158    5.7158    0.0000 O   0  0  0  0  0  0  0  0  0  0  0  0
    2.8579    9.0158    0.0000 C   0  0  0  0  0  0  0  0  0  0  0  0
    3.5724    9.4283    0.0000 C   0  0  0  0  0  0  0  0  0  0  0  0
    4.2868    9.0158    0.0000 O   0  0  0  0  0  0  0  0  0  0  0  0
    3.5724   10.2533    0.0000 O   0  0  0  0  0  0  0  0  0  0  0  0
    1.4289    9.8408    0.0000 Na  0  0  0  0  0  0  0  0  0  0  0  0
    0.0000    4.8908    0.0000 Na  0  0  0  0  0  0  0  0  0  0  0  0
    4.2868    9.8408    0.0000 Na  0  0  0  0  0  0  0  0  0  0  0  0
    5.7158    4.8908    0.0000 Ca  0  0  0  0  0  0  0  0  0  0  0  0
    0.0000    0.0000    0.0000 H   0  0  0  0  0  0  0  0  0  0  0  0
    0.0000    0.0000    0.0000 H   0  0  0  0  0  0  0  0  0  0  0  0
    0.0000    0.0000    0.0000 H   0  0  0  0  0  0  0  0  0  0  0  0
    0.0000    0.0000    0.0000 H   0  0  0  0  0  0  0  0  0  0  0  0
    0.0000    0.0000    0.0000 H   0  0  0  0  0  0  0  0  0  0  0  0
    0.0000    0.0000    0.0000 H   0  0  0  0  0  0  0  0  0  0  0  0
    0.0000    0.0000    0.0000 H   0  0  0  0  0  0  0  0  0  0  0  0
    0.0000    0.0000    0.0000 H   0  0  0  0  0  0  0  0  0  0  0  0
    0.0000    0.0000    0.0000 H   0  0  0  0  0  0  0  0  0  0  0  0
    0.0000    0.0000    0.0000 H   0  0  0  0  0  0  0  0  0  0  0  0
    0.0000    0.0000    0.0000 H   0  0  0  0  0  0  0  0  0  0  0  0
    0.0000    0.0000    0.0000 H   0  0  0  0  0  0  0  0  0  0  0  0
    0.0000    0.0000    0.0000 H   0  0  0  0  0  0  0  0  0  0  0  0
    0.0000    0.0000    0.0000 H   0  0  0  0  0  0  0  0  0  0  0  0
    0.0000    0.0000    0.0000 H   0  0  0  0  0  0  0  0  0  0  0  0
    0.0000    0.0000    0.0000 H   0  0  0  0  0  0  0  0  0  0  0  0
    0.0000    0.0000    0.0000 H   0  0  0  0  0  0  0  0  0  0  0  0
    0.0000    0.0000    0.0000 H   0  0  0  0  0  0  0  0  0  0  0  0
  1  2  1  0
  2  3  1  0
  3  4  1  0
  4  5  1  0
  5  6  2  0
  5  7  1  0
  3  8  1  0
  8  9  1  0
  9 10  2  0
  9 11  1  0
  1 12  1  0
 12 13  1  0
 13 14  1  0
 14 15  1  0
 15 16  1  0
 16 17  1  0
 17 18  2  0
 17 19  1  0
 15 20  1  0
 20 21  1  0
 21 22  2  0
 21 23  1  0
 12 24  1  0
 24 25  1  0
 25 26  2  0
 25 27  1  0
  1 32  1  0
  1 33  1  0
  2 34  1  0
  2 35  1  0
  4 36  1  0
  4 37  1  0
  8 38  1  0
  8 39  1  0
 13 40  1  0
 13 41  1  0
 14 42  1  0
 14 43  1  0
 16 44  1  0
 16 45  1  0
 20 46  1  0
 20 47  1  0
 24 48  1  0
 24 49  1  0
M  CHG  8   7  -1  11  -1  19  -1  23  -1  27  -1  28   1  29   1  30   1
M  CHG  1  31   2
M  END
>  <ALOGPS_LOGP>  (1) 
0.22

>  <ALOGPS_LOGS>  (1) 
-1.70

>  <ALOGPS_SOLUBILITY>  (1) 
1.10e+01 g/l

>  <DATABASE_ID>  (1) 
DB06805

>  <DATABASE_NAME>  (1) 
drugbank

>  <DRUGBANK_ID>  (1) 
DB06805

>  <DRUG_GROUPS>  (1) 
approved

>  <EXACT_MASS>  (1) 
497.0311175

>  <FORMULA>  (1) 
C14H18CaN3Na3O10

>  <GENERIC_NAME>  (1) 
Pentetate calcium trisodium

>  <INCHI_IDENTIFIER>  (1) 
InChI=1S/C14H23N3O10.Ca.3Na/c18-10(19)5-15(1-3-16(6-11(20)21)7-12(22)23)2-4-17(8-13(24)25)9-14(26)27;;;;/h1-9H2,(H,18,19)(H,20,21)(H,22,23)(H,24,25)(H,26,27);;;;/q;+2;3*+1/p-5

>  <INCHI_KEY>  (1) 
AYFCVLSUPGCQKD-UHFFFAOYSA-I

>  <JCHEM_ACCEPTOR_COUNT>  (1) 
13

>  <JCHEM_ATOM_COUNT>  (1) 
49

>  <JCHEM_AVERAGE_POLARIZABILITY>  (1) 
34.80161242727547

>  <JCHEM_BIOAVAILABILITY>  (1) 
0

>  <JCHEM_DONOR_COUNT>  (1) 
0

>  <JCHEM_FORMAL_CHARGE>  (1) 
0

>  <JCHEM_GHOSE_FILTER>  (1) 
0

>  <JCHEM_IUPAC>  (1) 
calcium trisodium 2-[bis({2-[bis(carboxymethyl)amino]ethyl})amino]acetate

>  <JCHEM_LOGP>  (1) 
-6.27356225191311

>  <JCHEM_MDDR_LIKE_RULE>  (1) 
0

>  <JCHEM_NUMBER_OF_RINGS>  (1) 
0

>  <JCHEM_PHYSIOLOGICAL_CHARGE>  (1) 
-3

>  <JCHEM_PKA>  (1) 
2.3345681026566734

>  <JCHEM_PKA_STRONGEST_ACIDIC>  (1) 
1.948378830553791

>  <JCHEM_PKA_STRONGEST_BASIC>  (1) 
8.820682146675209

>  <JCHEM_POLAR_SURFACE_AREA>  (1) 
210.36999999999998

>  <JCHEM_REFRACTIVITY>  (1) 
140.63479999999998

>  <JCHEM_ROTATABLE_BOND_COUNT>  (1) 
16

>  <JCHEM_RULE_OF_FIVE>  (1) 
0

>  <JCHEM_TRADITIONAL_IUPAC>  (1) 
calcium trisodium [bis({2-[bis(carboxymethyl)amino]ethyl})amino]acetate

>  <JCHEM_VEBER_RULE>  (1) 
0

>  <MOLECULAR_WEIGHT>  (1) 
497.356

>  <PRODUCTS>  (1) 
Pentetate calcium trisodium

>  <SMILES>  (1) 
[Na+].[Na+].[Na+].[Ca++].[O-]C(=O)CN(CCN(CC([O-])=O)CC([O-])=O)CCN(CC([O-])=O)CC([O-])=O

>  <SYNONYMS>  (1) 
Calcium trisodium pentetate

$$$$
