
     RDKit          2D

 74 76  0  0  1  0  0  0  0  0999 V2000
   -2.3441   -0.6152    0.0000 C   0  0  0  0  0  0  0  0  0  0  0  0
   -1.2822    0.3409    0.0000 C   0  0  0  0  0  0  0  0  0  0  0  0
   -1.2400   -1.8414    0.0000 C   0  0  0  0  0  0  0  0  0  0  0  0
    1.4358   -0.5422    0.0000 C   0  0  0  0  0  0  0  0  0  0  0  0
    4.7812    4.4104    0.0000 C   0  0  0  0  0  0  0  0  0  0  0  0
    1.8371    0.2900    0.0000 C   0  0  0  0  0  0  0  0  0  0  0  0
    3.3523    1.1104    0.0000 C   0  0  0  0  0  0  0  0  0  0  0  0
    3.3523    1.9354    0.0000 C   0  0  0  0  0  0  0  0  0  0  0  0
   -0.1781   -0.8853    0.0000 C   0  0  0  0  0  0  0  0  0  0  0  0
    0.0768   -0.1006    0.0000 C   0  0  0  0  0  0  0  0  0  0  0  0
    2.6378    3.1729    0.0000 C   0  0  0  0  0  0  0  0  0  0  0  0
    3.3523    3.5854    0.0000 C   0  0  0  0  0  0  0  0  0  0  0  0
    0.6538    1.5229    0.0000 C   0  0  0  0  0  0  0  0  0  0  0  0
    1.1387    2.1904    0.0000 C   0  0  0  0  0  0  0  0  0  0  0  0
    2.6378    0.6979    0.0000 C   0  0  0  0  0  0  0  0  0  0  0  0
    2.6378    4.8229    0.0000 C   0  0  0  0  0  0  0  0  0  0  0  0
    3.3523    6.0604    0.0000 C   0  0  0  0  0  0  0  0  0  0  0  0
   -1.5371   -0.4437    0.0000 C   0  0  0  0  0  0  0  0  0  0  0  0
   -0.9851   -1.0568    0.0000 C   0  0  0  0  0  0  0  0  0  0  0  0
    0.8838    0.0709    0.0000 C   0  0  0  0  0  0  0  0  0  0  0  0
    4.0668    4.8229    0.0000 C   0  0  0  0  0  0  0  0  0  0  0  0
    2.6378    2.3479    0.0000 C   0  0  0  0  0  0  0  0  0  0  0  0
    3.3523    4.4104    0.0000 C   0  0  0  0  0  0  0  0  0  0  0  0
    2.6378    5.6479    0.0000 C   0  0  0  0  0  0  0  0  0  0  0  0
    1.1387    0.8555    0.0000 C   0  0  0  0  0  0  0  0  0  0  0  0
    1.9233    1.9354    0.0000 C   0  0  0  0  0  0  0  0  0  0  0  0
    4.0668    5.6479    0.0000 C   0  0  0  0  0  0  0  0  0  0  0  0
    1.9233    1.1104    0.0000 C   0  0  0  0  0  0  0  0  0  0  0  0
    1.9233    6.0604    0.0000 O   0  0  0  0  0  0  0  0  0  0  0  0
    4.7812    6.0604    0.0000 O   0  0  0  0  0  0  0  0  0  0  0  0
    0.0000    0.0000    0.0000 H   0  0  0  0  0  0  0  0  0  0  0  0
    0.0000    0.0000    0.0000 H   0  0  0  0  0  0  0  0  0  0  0  0
    0.0000    0.0000    0.0000 H   0  0  0  0  0  0  0  0  0  0  0  0
    0.0000    0.0000    0.0000 H   0  0  0  0  0  0  0  0  0  0  0  0
    0.0000    0.0000    0.0000 H   0  0  0  0  0  0  0  0  0  0  0  0
    0.0000    0.0000    0.0000 H   0  0  0  0  0  0  0  0  0  0  0  0
    0.0000    0.0000    0.0000 H   0  0  0  0  0  0  0  0  0  0  0  0
    0.0000    0.0000    0.0000 H   0  0  0  0  0  0  0  0  0  0  0  0
    0.0000    0.0000    0.0000 H   0  0  0  0  0  0  0  0  0  0  0  0
    0.0000    0.0000    0.0000 H   0  0  0  0  0  0  0  0  0  0  0  0
    0.0000    0.0000    0.0000 H   0  0  0  0  0  0  0  0  0  0  0  0
    0.0000    0.0000    0.0000 H   0  0  0  0  0  0  0  0  0  0  0  0
    0.0000    0.0000    0.0000 H   0  0  0  0  0  0  0  0  0  0  0  0
    0.0000    0.0000    0.0000 H   0  0  0  0  0  0  0  0  0  0  0  0
    0.0000    0.0000    0.0000 H   0  0  0  0  0  0  0  0  0  0  0  0
    0.0000    0.0000    0.0000 H   0  0  0  0  0  0  0  0  0  0  0  0
    0.0000    0.0000    0.0000 H   0  0  0  0  0  0  0  0  0  0  0  0
    0.0000    0.0000    0.0000 H   0  0  0  0  0  0  0  0  0  0  0  0
    0.0000    0.0000    0.0000 H   0  0  0  0  0  0  0  0  0  0  0  0
    0.0000    0.0000    0.0000 H   0  0  0  0  0  0  0  0  0  0  0  0
    0.0000    0.0000    0.0000 H   0  0  0  0  0  0  0  0  0  0  0  0
    0.0000    0.0000    0.0000 H   0  0  0  0  0  0  0  0  0  0  0  0
    0.0000    0.0000    0.0000 H   0  0  0  0  0  0  0  0  0  0  0  0
    0.0000    0.0000    0.0000 H   0  0  0  0  0  0  0  0  0  0  0  0
    0.0000    0.0000    0.0000 H   0  0  0  0  0  0  0  0  0  0  0  0
    0.0000    0.0000    0.0000 H   0  0  0  0  0  0  0  0  0  0  0  0
    0.0000    0.0000    0.0000 H   0  0  0  0  0  0  0  0  0  0  0  0
    0.0000    0.0000    0.0000 H   0  0  0  0  0  0  0  0  0  0  0  0
    0.0000    0.0000    0.0000 H   0  0  0  0  0  0  0  0  0  0  0  0
    0.0000    0.0000    0.0000 H   0  0  0  0  0  0  0  0  0  0  0  0
    0.0000    0.0000    0.0000 H   0  0  0  0  0  0  0  0  0  0  0  0
    0.0000    0.0000    0.0000 H   0  0  0  0  0  0  0  0  0  0  0  0
    0.0000    0.0000    0.0000 H   0  0  0  0  0  0  0  0  0  0  0  0
    0.0000    0.0000    0.0000 H   0  0  0  0  0  0  0  0  0  0  0  0
    0.0000    0.0000    0.0000 H   0  0  0  0  0  0  0  0  0  0  0  0
    0.0000    0.0000    0.0000 H   0  0  0  0  0  0  0  0  0  0  0  0
    0.0000    0.0000    0.0000 H   0  0  0  0  0  0  0  0  0  0  0  0
    0.0000    0.0000    0.0000 H   0  0  0  0  0  0  0  0  0  0  0  0
    0.0000    0.0000    0.0000 H   0  0  0  0  0  0  0  0  0  0  0  0
    0.0000    0.0000    0.0000 H   0  0  0  0  0  0  0  0  0  0  0  0
    0.0000    0.0000    0.0000 H   0  0  0  0  0  0  0  0  0  0  0  0
    0.0000    0.0000    0.0000 H   0  0  0  0  0  0  0  0  0  0  0  0
    0.0000    0.0000    0.0000 H   0  0  0  0  0  0  0  0  0  0  0  0
    0.0000    0.0000    0.0000 H   0  0  0  0  0  0  0  0  0  0  0  0
  8  7  1  0
 10  9  2  0
 12 11  1  0
 14 13  1  0
 15  7  1  0
 18  1  1  0
 18  2  1  0
 19  3  1  1
 19  9  1  0
 19 18  1  0
 20  4  1  1
 20 10  1  0
 21  5  2  3
 22  8  1  0
 22 11  2  0
 23 12  2  0
 23 16  1  0
 23 21  1  0
 24 16  1  0
 24 17  1  0
 25 13  1  0
 25 20  1  0
 26 14  1  0
 26 22  1  0
 27 17  1  0
 27 21  1  0
 28  6  1  1
 28 15  1  0
 28 25  1  0
 28 26  1  0
 24 29  1  1
 27 30  1  1
  1 31  1  0
  1 32  1  0
  1 33  1  0
  2 34  1  0
  2 35  1  0
  2 36  1  0
  3 37  1  0
  3 38  1  0
  3 39  1  0
  4 40  1  0
  4 41  1  0
  4 42  1  0
  5 43  1  0
  5 44  1  0
  6 45  1  0
  6 46  1  0
  6 47  1  0
  7 48  1  0
  7 49  1  0
  8 50  1  0
  8 51  1  0
  9 52  1  0
 10 53  1  0
 11 54  1  0
 12 55  1  0
 13 56  1  0
 13 57  1  0
 14 58  1  0
 14 59  1  0
 15 60  1  0
 15 61  1  0
 16 62  1  0
 16 63  1  0
 17 64  1  0
 17 65  1  0
 18 66  1  0
 19 67  1  0
 20 68  1  0
 24 69  1  0
 25 70  1  6
 26 71  1  6
 27 72  1  0
 29 73  1  0
 30 74  1  0
M  END
>  <ALOGPS_LOGP>  (1) 
6.27

>  <ALOGPS_LOGS>  (1) 
-5.39

>  <ALOGPS_SOLUBILITY>  (1) 
1.68e-03 g/l

>  <DATABASE_ID>  (1) 
DB06410

>  <DATABASE_NAME>  (1) 
drugbank

>  <DRUGBANK_ID>  (1) 
DB06410

>  <DRUG_GROUPS>  (1) 
approved

>  <EXACT_MASS>  (1) 
412.334130652

>  <FORMULA>  (1) 
C28H44O2

>  <GENERIC_NAME>  (1) 
Doxercalciferol

>  <INCHI_IDENTIFIER>  (1) 
InChI=1S/C28H44O2/c1-18(2)19(3)9-10-20(4)25-13-14-26-22(8-7-15-28(25,26)6)11-12-23-16-24(29)17-27(30)21(23)5/h9-12,18-20,24-27,29-30H,5,7-8,13-17H2,1-4,6H3/b10-9+,22-11+,23-12-/t19-,20+,24+,25+,26-,27-,28+/m0/s1

>  <INCHI_KEY>  (1) 
HKXBNHCUPKIYDM-CGMHZMFXSA-N

>  <INTERNATIONAL_BRANDS>  (1) 
Hectoral

>  <JCHEM_ACCEPTOR_COUNT>  (1) 
2

>  <JCHEM_AVERAGE_POLARIZABILITY>  (1) 
52.0097190399393

>  <JCHEM_BIOAVAILABILITY>  (1) 
1

>  <JCHEM_DONOR_COUNT>  (1) 
2

>  <JCHEM_FORMAL_CHARGE>  (1) 
0

>  <JCHEM_GHOSE_FILTER>  (1) 
0

>  <JCHEM_IUPAC>  (1) 
(1R,3S,5Z)-5-{2-[(1R,3aS,4E,7aR)-1-[(2R,3E,5R)-5,6-dimethylhept-3-en-2-yl]-7a-methyl-octahydro-1H-inden-4-ylidene]ethylidene}-4-methylidenecyclohexane-1,3-diol

>  <JCHEM_LOGP>  (1) 
5.746953121333334

>  <JCHEM_MDDR_LIKE_RULE>  (1) 
0

>  <JCHEM_NUMBER_OF_RINGS>  (1) 
3

>  <JCHEM_PHYSIOLOGICAL_CHARGE>  (1) 
0

>  <JCHEM_PKA>  (1) 
15.288747760728633

>  <JCHEM_PKA_STRONGEST_ACIDIC>  (1) 
14.392873609816359

>  <JCHEM_PKA_STRONGEST_BASIC>  (1) 
-2.7596614720148134

>  <JCHEM_POLAR_SURFACE_AREA>  (1) 
40.46

>  <JCHEM_REFRACTIVITY>  (1) 
130.36159999999995

>  <JCHEM_ROTATABLE_BOND_COUNT>  (1) 
5

>  <JCHEM_RULE_OF_FIVE>  (1) 
0

>  <JCHEM_TRADITIONAL_IUPAC>  (1) 
hectorol

>  <JCHEM_VEBER_RULE>  (1) 
0

>  <MOLECULAR_WEIGHT>  (1) 
412.6478

>  <PRODUCTS>  (1) 
Doxercalciferol; Hectorol

>  <SMILES>  (1) 
[H]\C(\C(\[H])=C1/CCC[C@@]2(C)[C@@]1([H])CC[C@]2([H])[C@]([H])(C)C(\[H])=C(/[H])[C@]([H])(C)C(C)C)=C1/C[C@@]([H])(O)C[C@]([H])(O)C1=C

>  <SYNONYMS>  (1) 
(1S,3R,5Z,7E,22E)-9,10-Secoergosta-5,7,10,22-tetraene-1,3-diol; 1-alpha-hydroxyergocalciferol; 1-Hydroxyergocalciferol; 1-Hydroxyvitamin D2; 1alpha-hydroxyvitamin D2; 1Î±-Hydroxyergocalciferol; Doxercalciferol; Doxercalciferolum

$$$$
