
     RDKit          2D

225230  0  0  0  0  0  0  0  0999 V2000
  -12.5062   -0.6901    0.0000 C   0  0  0  0  0  0  0  0  0  0  0  0
  -12.5062   -1.5267    0.0000 C   0  0  0  0  0  0  0  0  0  0  0  0
  -11.7952   -1.9449    0.0000 C   0  0  0  0  0  0  0  0  0  0  0  0
  -11.0841   -1.5267    0.0000 C   0  0  0  0  0  0  0  0  0  0  0  0
  -11.0841   -0.6901    0.0000 C   0  0  0  0  0  0  0  0  0  0  0  0
  -11.7952   -0.2718    0.0000 C   0  0  0  0  0  0  0  0  0  0  0  0
  -10.3731   -1.9449    0.0000 C   0  0  0  0  0  0  0  0  0  0  0  0
   -9.6620   -1.5267    0.0000 C   0  0  0  0  0  0  0  0  0  0  0  0
   -9.6620   -0.6901    0.0000 C   0  0  0  0  0  0  0  0  0  0  0  0
  -10.3731   -0.2718    0.0000 C   0  0  0  0  0  0  0  0  0  0  0  0
   -8.2399   -1.7357    0.0000 N   0  0  0  0  0  0  0  0  0  0  0  0
   -8.2399   -0.6901    0.0000 C   0  0  0  0  0  0  0  0  0  0  0  0
   -8.9510   -0.2718    0.0000 C   0  0  0  0  0  0  0  0  0  0  0  0
   -7.5289   -2.1540    0.0000 C   0  0  0  0  0  0  0  0  0  0  0  0
   -6.8177   -0.6901    0.0000 N   0  0  0  0  0  0  0  0  0  0  0  0
   -7.5289   -0.2718    0.0000 C   0  0  0  0  0  0  0  0  0  0  0  0
   -5.3956   -1.5267    0.0000 O   0  0  0  0  0  0  0  0  0  0  0  0
   -5.3956   -0.6901    0.0000 C   0  0  0  0  0  0  0  0  0  0  0  0
   -6.1067   -0.2718    0.0000 C   0  0  0  0  0  0  0  0  0  0  0  0
   -3.9317   -1.6103    0.0000 C   0  0  0  0  0  0  0  0  0  0  0  0
   -3.9317   -0.6901    0.0000 C   0  0  0  0  0  0  0  0  0  0  0  0
   -4.6427   -0.2718    0.0000 N   0  0  0  0  0  0  0  0  0  0  0  0
   -2.5096   -0.6901    0.0000 N   0  0  0  0  0  0  0  0  0  0  0  0
   -3.2206   -0.2718    0.0000 C   0  0  0  0  0  0  0  0  0  0  0  0
   -1.0875   -1.5267    0.0000 O   0  0  0  0  0  0  0  0  0  0  0  0
   -1.0875   -0.6901    0.0000 C   0  0  0  0  0  0  0  0  0  0  0  0
   -1.7985   -0.2718    0.0000 C   0  0  0  0  0  0  0  0  0  0  0  0
    0.3346   -1.5684    0.0000 C   0  0  0  0  0  0  0  0  0  0  0  0
    0.3346   -0.6901    0.0000 C   0  0  0  0  0  0  0  0  0  0  0  0
   -0.3764   -0.2718    0.0000 N   0  0  0  0  0  0  0  0  0  0  0  0
   -7.5289    0.5228    0.0000 O   0  0  0  0  0  0  0  0  0  0  0  0
   -6.1067    1.1920    0.0000 C   0  0  0  0  0  0  0  0  0  0  0  0
   -3.2206    0.5228    0.0000 O   0  0  0  0  0  0  0  0  0  0  0  0
    1.7567   -0.6901    0.0000 N   0  0  0  0  0  0  0  0  0  0  0  0
    1.0456   -0.2718    0.0000 C   0  0  0  0  0  0  0  0  0  0  0  0
    3.1788   -1.5267    0.0000 O   0  0  0  0  0  0  0  0  0  0  0  0
    3.1788   -0.6901    0.0000 C   0  0  0  0  0  0  0  0  0  0  0  0
    2.4677   -0.2718    0.0000 C   0  0  0  0  0  0  0  0  0  0  0  0
    4.6427   -1.7357    0.0000 C   0  0  0  0  0  0  0  0  0  0  0  0
    4.6427   -0.6901    0.0000 C   0  0  0  0  0  0  0  0  0  0  0  0
    3.9317   -0.2718    0.0000 N   0  0  0  0  0  0  0  0  0  0  0  0
    6.0649   -0.6901    0.0000 N   0  0  0  0  0  0  0  0  0  0  0  0
    5.3538   -0.2718    0.0000 C   0  0  0  0  0  0  0  0  0  0  0  0
    7.4870   -1.5267    0.0000 O   0  0  0  0  0  0  0  0  0  0  0  0
    7.4870   -0.6901    0.0000 C   0  0  0  0  0  0  0  0  0  0  0  0
    6.7760   -0.2718    0.0000 C   0  0  0  0  0  0  0  0  0  0  0  0
    1.0456    0.5228    0.0000 O   0  0  0  0  0  0  0  0  0  0  0  0
    5.3538    0.5228    0.0000 O   0  0  0  0  0  0  0  0  0  0  0  0
    8.1981   -0.2718    0.0000 N   0  0  0  0  0  0  0  0  0  0  0  0
    8.8254   -0.7738    0.0000 C   0  0  0  0  0  0  0  0  0  0  0  0
    9.4947   -0.3136    0.0000 C   0  0  0  0  0  0  0  0  0  0  0  0
    9.2856    0.4809    0.0000 C   0  0  0  0  0  0  0  0  0  0  0  0
    8.4908    0.4809    0.0000 C   0  0  0  0  0  0  0  0  0  0  0  0
   -6.8177   -1.7357    0.0000 C   0  0  0  0  0  0  0  0  0  0  0  0
   -7.5289   -2.9488    0.0000 O   0  0  0  0  0  0  0  0  0  0  0  0
   -6.8177    1.6103    0.0000 C   0  0  0  0  0  0  0  0  0  0  0  0
   -6.8177    2.4469    0.0000 C   0  0  0  0  0  0  0  0  0  0  0  0
   -7.5289    2.8651    0.0000 C   0  0  0  0  0  0  0  0  0  0  0  0
   -8.2399    2.4469    0.0000 C   0  0  0  0  0  0  0  0  0  0  0  0
   -8.2399    1.6103    0.0000 C   0  0  0  0  0  0  0  0  0  0  0  0
   -7.5289    1.1920    0.0000 C   0  0  0  0  0  0  0  0  0  0  0  0
   -8.9510    2.8651    0.0000 Cl  0  0  0  0  0  0  0  0  0  0  0  0
    8.8254   -1.6103    0.0000 C   0  0  0  0  0  0  0  0  0  0  0  0
    8.1144   -2.0286    0.0000 O   0  0  0  0  0  0  0  0  0  0  0  0
    9.5783   -2.0286    0.0000 N   0  0  0  0  0  0  0  0  0  0  0  0
   10.2894   -1.6103    0.0000 C   0  0  0  0  0  0  0  0  0  0  0  0
   10.9587   -2.0286    0.0000 C   0  0  0  0  0  0  0  0  0  0  0  0
   11.6697   -1.6103    0.0000 N   0  0  0  0  0  0  0  0  0  0  0  0
   10.9587   -2.8232    0.0000 O   0  0  0  0  0  0  0  0  0  0  0  0
   10.2894   -0.7738    0.0000 C   0  0  0  0  0  0  0  0  0  0  0  0
    5.3538   -2.1540    0.0000 C   0  0  0  0  0  0  0  0  0  0  0  0
    6.0649   -1.7357    0.0000 C   0  0  0  0  0  0  0  0  0  0  0  0
    5.3538   -2.9488    0.0000 C   0  0  0  0  0  0  0  0  0  0  0  0
    1.0456   -1.9867    0.0000 C   0  0  0  0  0  0  0  0  0  0  0  0
    1.0456   -2.7815    0.0000 C   0  0  0  0  0  0  0  0  0  0  0  0
    1.7567   -3.1997    0.0000 C   0  0  0  0  0  0  0  0  0  0  0  0
    2.5096   -2.7815    0.0000 C   0  0  0  0  0  0  0  0  0  0  0  0
    2.5096   -1.9867    0.0000 C   0  0  0  0  0  0  0  0  0  0  0  0
    1.7567   -1.5684    0.0000 C   0  0  0  0  0  0  0  0  0  0  0  0
    3.2206   -3.1997    0.0000 O   0  0  0  0  0  0  0  0  0  0  0  0
   -3.2206   -2.0286    0.0000 C   0  0  0  0  0  0  0  0  0  0  0  0
   -3.2206   -2.8232    0.0000 C   0  0  0  0  0  0  0  0  0  0  0  0
   -2.5096   -3.2415    0.0000 C   0  0  0  0  0  0  0  0  0  0  0  0
   -1.7985   -2.8232    0.0000 C   0  0  0  0  0  0  0  0  0  0  0  0
   -1.7985   -2.0286    0.0000 N   0  0  0  0  0  0  0  0  0  0  0  0
   -2.5096   -1.6103    0.0000 C   0  0  0  0  0  0  0  0  0  0  0  0
    2.4677    1.5684    0.0000 C   0  0  0  0  0  0  0  0  0  0  0  0
    1.7567    1.9867    0.0000 C   0  0  0  0  0  0  0  0  0  0  0  0
   -1.7985    0.5646    0.0000 C   0  0  0  0  0  0  0  0  0  0  0  0
   -1.0456    0.9829    0.0000 O   0  0  0  0  0  0  0  0  0  0  0  0
    6.7760    0.7738    0.0000 C   0  0  0  0  0  0  0  0  0  0  0  0
    7.5289    1.1920    0.0000 C   0  0  0  0  0  0  0  0  0  0  0  0
    1.0456    1.5684    0.0000 C   0  0  0  0  0  0  0  0  0  0  0  0
    0.3346    1.9867    0.0000 C   0  0  0  0  0  0  0  0  0  0  0  0
   -0.3764    1.5684    0.0000 N   0  0  0  0  0  0  0  0  0  0  0  0
   -1.0875    1.9867    0.0000 C   0  0  0  0  0  0  0  0  0  0  0  0
   -1.7985    1.5684    0.0000 N   0  0  0  0  0  0  0  0  0  0  0  0
   -1.0875    2.8232    0.0000 N   0  0  0  0  0  0  0  0  0  0  0  0
   -2.5096    1.9867    0.0000 C   0  0  0  0  0  0  0  0  0  0  0  0
   -3.2206    1.5684    0.0000 C   0  0  0  0  0  0  0  0  0  0  0  0
   -1.7985    3.2415    0.0000 C   0  0  0  0  0  0  0  0  0  0  0  0
   -2.5096    2.8232    0.0000 C   0  0  0  0  0  0  0  0  0  0  0  0
    8.2399    0.7738    0.0000 C   0  0  0  0  0  0  0  0  0  0  0  0
    8.9510    1.1920    0.0000 C   0  0  0  0  0  0  0  0  0  0  0  0
    9.6620    0.7738    0.0000 N   0  0  0  0  0  0  0  0  0  0  0  0
   10.3731    1.1920    0.0000 C   0  0  0  0  0  0  0  0  0  0  0  0
   11.0841    0.7738    0.0000 N   0  0  0  0  0  0  0  0  0  0  0  0
   11.7952    1.1920    0.0000 C   0  0  0  0  0  0  0  0  0  0  0  0
   12.5062    0.7738    0.0000 C   0  0  0  0  0  0  0  0  0  0  0  0
   10.3731    2.0286    0.0000 N   0  0  0  0  0  0  0  0  0  0  0  0
   11.0841    2.4469    0.0000 C   0  0  0  0  0  0  0  0  0  0  0  0
   11.7952    2.0286    0.0000 C   0  0  0  0  0  0  0  0  0  0  0  0
    0.0000    0.0000    0.0000 H   0  0  0  0  0  0  0  0  0  0  0  0
    0.0000    0.0000    0.0000 H   0  0  0  0  0  0  0  0  0  0  0  0
    0.0000    0.0000    0.0000 H   0  0  0  0  0  0  0  0  0  0  0  0
    0.0000    0.0000    0.0000 H   0  0  0  0  0  0  0  0  0  0  0  0
    0.0000    0.0000    0.0000 H   0  0  0  0  0  0  0  0  0  0  0  0
    0.0000    0.0000    0.0000 H   0  0  0  0  0  0  0  0  0  0  0  0
    0.0000    0.0000    0.0000 H   0  0  0  0  0  0  0  0  0  0  0  0
    0.0000    0.0000    0.0000 H   0  0  0  0  0  0  0  0  0  0  0  0
    0.0000    0.0000    0.0000 H   0  0  0  0  0  0  0  0  0  0  0  0
    0.0000    0.0000    0.0000 H   0  0  0  0  0  0  0  0  0  0  0  0
    0.0000    0.0000    0.0000 H   0  0  0  0  0  0  0  0  0  0  0  0
    0.0000    0.0000    0.0000 H   0  0  0  0  0  0  0  0  0  0  0  0
    0.0000    0.0000    0.0000 H   0  0  0  0  0  0  0  0  0  0  0  0
    0.0000    0.0000    0.0000 H   0  0  0  0  0  0  0  0  0  0  0  0
    0.0000    0.0000    0.0000 H   0  0  0  0  0  0  0  0  0  0  0  0
    0.0000    0.0000    0.0000 H   0  0  0  0  0  0  0  0  0  0  0  0
    0.0000    0.0000    0.0000 H   0  0  0  0  0  0  0  0  0  0  0  0
    0.0000    0.0000    0.0000 H   0  0  0  0  0  0  0  0  0  0  0  0
    0.0000    0.0000    0.0000 H   0  0  0  0  0  0  0  0  0  0  0  0
    0.0000    0.0000    0.0000 H   0  0  0  0  0  0  0  0  0  0  0  0
    0.0000    0.0000    0.0000 H   0  0  0  0  0  0  0  0  0  0  0  0
    0.0000    0.0000    0.0000 H   0  0  0  0  0  0  0  0  0  0  0  0
    0.0000    0.0000    0.0000 H   0  0  0  0  0  0  0  0  0  0  0  0
    0.0000    0.0000    0.0000 H   0  0  0  0  0  0  0  0  0  0  0  0
    0.0000    0.0000    0.0000 H   0  0  0  0  0  0  0  0  0  0  0  0
    0.0000    0.0000    0.0000 H   0  0  0  0  0  0  0  0  0  0  0  0
    0.0000    0.0000    0.0000 H   0  0  0  0  0  0  0  0  0  0  0  0
    0.0000    0.0000    0.0000 H   0  0  0  0  0  0  0  0  0  0  0  0
    0.0000    0.0000    0.0000 H   0  0  0  0  0  0  0  0  0  0  0  0
    0.0000    0.0000    0.0000 H   0  0  0  0  0  0  0  0  0  0  0  0
    0.0000    0.0000    0.0000 H   0  0  0  0  0  0  0  0  0  0  0  0
    0.0000    0.0000    0.0000 H   0  0  0  0  0  0  0  0  0  0  0  0
    0.0000    0.0000    0.0000 H   0  0  0  0  0  0  0  0  0  0  0  0
    0.0000    0.0000    0.0000 H   0  0  0  0  0  0  0  0  0  0  0  0
    0.0000    0.0000    0.0000 H   0  0  0  0  0  0  0  0  0  0  0  0
    0.0000    0.0000    0.0000 H   0  0  0  0  0  0  0  0  0  0  0  0
    0.0000    0.0000    0.0000 H   0  0  0  0  0  0  0  0  0  0  0  0
    0.0000    0.0000    0.0000 H   0  0  0  0  0  0  0  0  0  0  0  0
    0.0000    0.0000    0.0000 H   0  0  0  0  0  0  0  0  0  0  0  0
    0.0000    0.0000    0.0000 H   0  0  0  0  0  0  0  0  0  0  0  0
    0.0000    0.0000    0.0000 H   0  0  0  0  0  0  0  0  0  0  0  0
    0.0000    0.0000    0.0000 H   0  0  0  0  0  0  0  0  0  0  0  0
    0.0000    0.0000    0.0000 H   0  0  0  0  0  0  0  0  0  0  0  0
    0.0000    0.0000    0.0000 H   0  0  0  0  0  0  0  0  0  0  0  0
    0.0000    0.0000    0.0000 H   0  0  0  0  0  0  0  0  0  0  0  0
    0.0000    0.0000    0.0000 H   0  0  0  0  0  0  0  0  0  0  0  0
    0.0000    0.0000    0.0000 H   0  0  0  0  0  0  0  0  0  0  0  0
    0.0000    0.0000    0.0000 H   0  0  0  0  0  0  0  0  0  0  0  0
    0.0000    0.0000    0.0000 H   0  0  0  0  0  0  0  0  0  0  0  0
    0.0000    0.0000    0.0000 H   0  0  0  0  0  0  0  0  0  0  0  0
    0.0000    0.0000    0.0000 H   0  0  0  0  0  0  0  0  0  0  0  0
    0.0000    0.0000    0.0000 H   0  0  0  0  0  0  0  0  0  0  0  0
    0.0000    0.0000    0.0000 H   0  0  0  0  0  0  0  0  0  0  0  0
    0.0000    0.0000    0.0000 H   0  0  0  0  0  0  0  0  0  0  0  0
    0.0000    0.0000    0.0000 H   0  0  0  0  0  0  0  0  0  0  0  0
    0.0000    0.0000    0.0000 H   0  0  0  0  0  0  0  0  0  0  0  0
    0.0000    0.0000    0.0000 H   0  0  0  0  0  0  0  0  0  0  0  0
    0.0000    0.0000    0.0000 H   0  0  0  0  0  0  0  0  0  0  0  0
    0.0000    0.0000    0.0000 H   0  0  0  0  0  0  0  0  0  0  0  0
    0.0000    0.0000    0.0000 H   0  0  0  0  0  0  0  0  0  0  0  0
    0.0000    0.0000    0.0000 H   0  0  0  0  0  0  0  0  0  0  0  0
    0.0000    0.0000    0.0000 H   0  0  0  0  0  0  0  0  0  0  0  0
    0.0000    0.0000    0.0000 H   0  0  0  0  0  0  0  0  0  0  0  0
    0.0000    0.0000    0.0000 H   0  0  0  0  0  0  0  0  0  0  0  0
    0.0000    0.0000    0.0000 H   0  0  0  0  0  0  0  0  0  0  0  0
    0.0000    0.0000    0.0000 H   0  0  0  0  0  0  0  0  0  0  0  0
    0.0000    0.0000    0.0000 H   0  0  0  0  0  0  0  0  0  0  0  0
    0.0000    0.0000    0.0000 H   0  0  0  0  0  0  0  0  0  0  0  0
    0.0000    0.0000    0.0000 H   0  0  0  0  0  0  0  0  0  0  0  0
    0.0000    0.0000    0.0000 H   0  0  0  0  0  0  0  0  0  0  0  0
    0.0000    0.0000    0.0000 H   0  0  0  0  0  0  0  0  0  0  0  0
    0.0000    0.0000    0.0000 H   0  0  0  0  0  0  0  0  0  0  0  0
    0.0000    0.0000    0.0000 H   0  0  0  0  0  0  0  0  0  0  0  0
    0.0000    0.0000    0.0000 H   0  0  0  0  0  0  0  0  0  0  0  0
    0.0000    0.0000    0.0000 H   0  0  0  0  0  0  0  0  0  0  0  0
    0.0000    0.0000    0.0000 H   0  0  0  0  0  0  0  0  0  0  0  0
    0.0000    0.0000    0.0000 H   0  0  0  0  0  0  0  0  0  0  0  0
    0.0000    0.0000    0.0000 H   0  0  0  0  0  0  0  0  0  0  0  0
    0.0000    0.0000    0.0000 H   0  0  0  0  0  0  0  0  0  0  0  0
    0.0000    0.0000    0.0000 H   0  0  0  0  0  0  0  0  0  0  0  0
    0.0000    0.0000    0.0000 H   0  0  0  0  0  0  0  0  0  0  0  0
    0.0000    0.0000    0.0000 H   0  0  0  0  0  0  0  0  0  0  0  0
    0.0000    0.0000    0.0000 H   0  0  0  0  0  0  0  0  0  0  0  0
    0.0000    0.0000    0.0000 H   0  0  0  0  0  0  0  0  0  0  0  0
    0.0000    0.0000    0.0000 H   0  0  0  0  0  0  0  0  0  0  0  0
    0.0000    0.0000    0.0000 H   0  0  0  0  0  0  0  0  0  0  0  0
    0.0000    0.0000    0.0000 H   0  0  0  0  0  0  0  0  0  0  0  0
    0.0000    0.0000    0.0000 H   0  0  0  0  0  0  0  0  0  0  0  0
    0.0000    0.0000    0.0000 H   0  0  0  0  0  0  0  0  0  0  0  0
    0.0000    0.0000    0.0000 H   0  0  0  0  0  0  0  0  0  0  0  0
    0.0000    0.0000    0.0000 H   0  0  0  0  0  0  0  0  0  0  0  0
    0.0000    0.0000    0.0000 H   0  0  0  0  0  0  0  0  0  0  0  0
    0.0000    0.0000    0.0000 H   0  0  0  0  0  0  0  0  0  0  0  0
    0.0000    0.0000    0.0000 H   0  0  0  0  0  0  0  0  0  0  0  0
    0.0000    0.0000    0.0000 H   0  0  0  0  0  0  0  0  0  0  0  0
    0.0000    0.0000    0.0000 H   0  0  0  0  0  0  0  0  0  0  0  0
    0.0000    0.0000    0.0000 H   0  0  0  0  0  0  0  0  0  0  0  0
    0.0000    0.0000    0.0000 H   0  0  0  0  0  0  0  0  0  0  0  0
    0.0000    0.0000    0.0000 H   0  0  0  0  0  0  0  0  0  0  0  0
    0.0000    0.0000    0.0000 H   0  0  0  0  0  0  0  0  0  0  0  0
    0.0000    0.0000    0.0000 H   0  0  0  0  0  0  0  0  0  0  0  0
    0.0000    0.0000    0.0000 H   0  0  0  0  0  0  0  0  0  0  0  0
    0.0000    0.0000    0.0000 H   0  0  0  0  0  0  0  0  0  0  0  0
    0.0000    0.0000    0.0000 H   0  0  0  0  0  0  0  0  0  0  0  0
    0.0000    0.0000    0.0000 H   0  0  0  0  0  0  0  0  0  0  0  0
    0.0000    0.0000    0.0000 H   0  0  0  0  0  0  0  0  0  0  0  0
    0.0000    0.0000    0.0000 H   0  0  0  0  0  0  0  0  0  0  0  0
    0.0000    0.0000    0.0000 H   0  0  0  0  0  0  0  0  0  0  0  0
    0.0000    0.0000    0.0000 H   0  0  0  0  0  0  0  0  0  0  0  0
    0.0000    0.0000    0.0000 H   0  0  0  0  0  0  0  0  0  0  0  0
    0.0000    0.0000    0.0000 H   0  0  0  0  0  0  0  0  0  0  0  0
    0.0000    0.0000    0.0000 H   0  0  0  0  0  0  0  0  0  0  0  0
    0.0000    0.0000    0.0000 H   0  0  0  0  0  0  0  0  0  0  0  0
  1  2  2  0
  2  3  1  0
  3  4  2  0
  4  5  1  0
  5  6  2  0
  1  6  1  0
  4  7  1  0
  7  8  2  0
  8  9  1  0
  9 10  2  0
  5 10  1  0
 12 11  1  6
 12 13  1  0
  9 13  1  0
 11 14  1  0
 15 16  1  0
 12 16  1  0
 17 18  2  0
 19 18  1  6
 15 19  1  0
 21 20  1  1
 21 22  1  0
 18 22  1  0
 23 24  1  0
 21 24  1  0
 25 26  2  0
 27 26  1  1
 23 27  1  0
 29 28  1  1
 29 30  1  0
 26 30  1  0
 16 31  2  0
 19 32  1  0
 24 33  2  0
 34 35  1  0
 29 35  1  0
 36 37  2  0
 38 37  1  1
 34 38  1  0
 40 39  1  6
 40 41  1  0
 37 41  1  0
 42 43  1  0
 40 43  1  0
 44 45  2  0
 46 45  1  6
 42 46  1  0
 35 47  2  0
 43 48  2  0
 45 49  1  0
 49 50  1  0
 50 51  1  0
 51 52  1  0
 52 53  1  0
 49 53  1  0
 14 54  1  0
 14 55  2  0
 32 56  1  0
 56 57  2  0
 57 58  1  0
 58 59  2  0
 59 60  1  0
 60 61  2  0
 56 61  1  0
 59 62  1  0
 50 63  1  1
 63 64  2  0
 63 65  1  0
 66 65  1  6
 66 67  1  0
 67 68  1  0
 67 69  2  0
 66 70  1  0
 39 71  1  0
 71 72  1  0
 71 73  1  0
 28 74  1  0
 74 75  2  0
 75 76  1  0
 76 77  2  0
 77 78  1  0
 78 79  2  0
 74 79  1  0
 77 80  1  0
 20 81  1  0
 81 82  2  0
 82 83  1  0
 83 84  2  0
 84 85  1  0
 85 86  2  0
 81 86  1  0
 38 87  1  0
 87 88  1  0
 27 89  1  0
 89 90  1  0
 46 91  1  0
 91 92  1  0
 88 93  1  0
 93 94  1  0
 94 95  1  0
 95 96  2  3
 96 97  1  0
 96 98  1  0
 97 99  1  0
 99100  1  0
 98101  1  0
101102  1  0
 92103  1  0
103104  1  0
104105  1  0
105106  2  3
106107  1  0
107108  1  0
108109  1  0
106110  1  0
110111  1  0
111112  1  0
  1113  1  0
  2114  1  0
  3115  1  0
  6116  1  0
  7117  1  0
  8118  1  0
 10119  1  0
 11120  1  0
 12121  1  0
 13122  1  0
 13123  1  0
 15124  1  0
 19125  1  0
 20126  1  0
 20127  1  0
 21128  1  0
 22129  1  0
 23130  1  0
 27131  1  0
 28132  1  0
 28133  1  0
 29134  1  0
 30135  1  0
 32136  1  0
 32137  1  0
 34138  1  0
 38139  1  0
 39140  1  0
 39141  1  0
 40142  1  0
 41143  1  0
 42144  1  0
 46145  1  0
 50146  1  0
 51147  1  0
 51148  1  0
 52149  1  0
 52150  1  0
 53151  1  0
 53152  1  0
 54153  1  0
 54154  1  0
 54155  1  0
 57156  1  0
 58157  1  0
 60158  1  0
 61159  1  0
 65160  1  0
 66161  1  0
 68162  1  0
 68163  1  0
 70164  1  0
 70165  1  0
 70166  1  0
 71167  1  0
 72168  1  0
 72169  1  0
 72170  1  0
 73171  1  0
 73172  1  0
 73173  1  0
 75174  1  0
 76175  1  0
 78176  1  0
 79177  1  0
 80178  1  0
 82179  1  0
 83180  1  0
 84181  1  0
 86182  1  0
 87183  1  0
 87184  1  0
 88185  1  0
 88186  1  0
 89187  1  0
 89188  1  0
 90189  1  0
 91190  1  0
 91191  1  0
 92192  1  0
 92193  1  0
 93194  1  0
 93195  1  0
 94196  1  0
 94197  1  0
 97198  1  0
 98199  1  0
 99200  1  0
 99201  1  0
100202  1  0
100203  1  0
100204  1  0
101205  1  0
101206  1  0
102207  1  0
102208  1  0
102209  1  0
103210  1  0
103211  1  0
104212  1  0
104213  1  0
107214  1  0
108215  1  0
108216  1  0
109217  1  0
109218  1  0
109219  1  0
110220  1  0
111221  1  0
111222  1  0
112223  1  0
112224  1  0
112225  1  0
M  END
>  <ALOGPS_LOGP>  (1) 
3.42

>  <ALOGPS_LOGS>  (1) 
-5.47

>  <ALOGPS_SOLUBILITY>  (1) 
5.31e-03 g/l

>  <DATABASE_ID>  (1) 
DB06785

>  <DATABASE_NAME>  (1) 
drugbank

>  <DRUGBANK_ID>  (1) 
DB06785

>  <DRUG_GROUPS>  (1) 
approved

>  <EXACT_MASS>  (1) 
1568.8423035

>  <FORMULA>  (1) 
C80H113ClN18O13

>  <GENERIC_NAME>  (1) 
Ganirelix

>  <INCHI_IDENTIFIER>  (1) 
InChI=1S/C80H113ClN18O13/c1-9-84-79(85-10-2)88-38-17-15-24-60(70(104)94-62(41-49(5)6)71(105)93-61(25-16-18-39-89-80(86-11-3)87-12-4)78(112)99-40-20-26-68(99)77(111)90-50(7)69(82)103)92-73(107)64(44-53-30-35-59(102)36-31-53)97-76(110)67(48-100)98-75(109)66(46-55-21-19-37-83-47-55)96-74(108)65(43-52-28-33-58(81)34-29-52)95-72(106)63(91-51(8)101)45-54-27-32-56-22-13-14-23-57(56)42-54/h13-14,19,21-23,27-37,42,47,49-50,60-68,100,102H,9-12,15-18,20,24-26,38-41,43-46,48H2,1-8H3,(H2,82,103)(H,90,111)(H,91,101)(H,92,107)(H,93,105)(H,94,104)(H,95,106)(H,96,108)(H,97,110)(H,98,109)(H2,84,85,88)(H2,86,87,89)/t50-,60-,61+,62+,63-,64+,65-,66-,67+,68+/m1/s1

>  <INCHI_KEY>  (1) 
GJNXBNATEDXMAK-PFLSVRRQSA-N

>  <JCHEM_ACCEPTOR_COUNT>  (1) 
20

>  <JCHEM_ATOM_COUNT>  (1) 
225

>  <JCHEM_AVERAGE_POLARIZABILITY>  (1) 
170.37293890912568

>  <JCHEM_BIOAVAILABILITY>  (1) 
0

>  <JCHEM_DONOR_COUNT>  (1) 
16

>  <JCHEM_FORMAL_CHARGE>  (1) 
0

>  <JCHEM_GHOSE_FILTER>  (1) 
0

>  <JCHEM_IUPAC>  (1) 
(2R)-6-{[bis(ethylamino)methylidene]amino}-N-[(1S)-1-{[(2S)-6-{[bis(ethylamino)methylidene]amino}-1-[(2S)-2-{[(1R)-1-carbamoylethyl]carbamoyl}pyrrolidin-1-yl]-1-oxohexan-2-yl]carbamoyl}-3-methylbutyl]-2-[(2S)-2-[(2S)-2-[(2R)-2-[(2R)-3-(4-chlorophenyl)-2-[(2R)-2-acetamido-3-(naphthalen-2-yl)propanamido]propanamido]-3-(pyridin-3-yl)propanamido]-3-hydroxypropanamido]-3-(4-hydroxyphenyl)propanamido]hexanamide

>  <JCHEM_LOGP>  (1) 
1.6180238152835371

>  <JCHEM_MDDR_LIKE_RULE>  (1) 
1

>  <JCHEM_NUMBER_OF_RINGS>  (1) 
6

>  <JCHEM_PHYSIOLOGICAL_CHARGE>  (1) 
2

>  <JCHEM_PKA_STRONGEST_ACIDIC>  (1) 
9.499922731548414

>  <JCHEM_PKA_STRONGEST_BASIC>  (1) 
12.139057089229269

>  <JCHEM_POLAR_SURFACE_AREA>  (1) 
451.48999999999984

>  <JCHEM_REFRACTIVITY>  (1) 
423.46209999999996

>  <JCHEM_ROTATABLE_BOND_COUNT>  (1) 
44

>  <JCHEM_RULE_OF_FIVE>  (1) 
0

>  <JCHEM_TRADITIONAL_IUPAC>  (1) 
ganirelix

>  <JCHEM_VEBER_RULE>  (1) 
0

>  <MOLECULAR_WEIGHT>  (1) 
1570.35

>  <PRODUCTS>  (1) 
Ganirelix Acetate; Orgalutran

>  <SALTS>  (1) 
Ganirelix acetate

>  <SMILES>  (1) 
CCNC(NCC)=NCCCC[C@@H](NC(=O)[C@H](CC1=CC=C(O)C=C1)NC(=O)[C@H](CO)NC(=O)[C@@H](CC1=CC=CN=C1)NC(=O)[C@@H](CC1=CC=C(Cl)C=C1)NC(=O)[C@@H](CC1=CC2=CC=CC=C2C=C1)NC(C)=O)C(=O)N[C@@H](CC(C)C)C(=O)N[C@@H](CCCCN=C(NCC)NCC)C(=O)N1CCC[C@H]1C(=O)N[C@H](C)C(N)=O

$$$$
