
     RDKit          2D

 99105  0  0  1  0  0  0  0  0999 V2000
    8.5105   -1.6793    0.0000 C   0  0  0  0  0  0  0  0  0  0  0  0
    9.5861   -0.7386    0.0000 C   0  0  0  0  0  0  0  0  0  0  0  0
    9.6574    3.1971    0.0000 C   0  0  0  0  0  0  0  0  0  0  0  0
    5.2130   -0.2648    0.0000 C   0  0  0  0  0  0  0  0  0  0  0  0
   10.2575    4.4939    0.0000 C   0  0  0  0  0  0  0  0  0  0  0  0
    1.6330   -0.3395    0.0000 C   0  0  0  0  0  0  0  0  0  0  0  0
    2.3538   -0.7409    0.0000 C   0  0  0  0  0  0  0  0  0  0  0  0
    1.1578    0.3349    0.0000 C   0  0  0  0  0  0  0  0  0  0  0  0
    3.1773   -0.7899    0.0000 C   0  0  0  0  0  0  0  0  0  0  0  0
    1.0223    1.1487    0.0000 C   0  0  0  0  0  0  0  0  0  0  0  0
    2.6030    6.2429    0.0000 C   0  0  0  0  0  0  0  0  0  0  0  0
    1.7813    6.1686    0.0000 C   0  0  0  0  0  0  0  0  0  0  0  0
    7.4112    4.2364    0.0000 C   0  0  0  0  0  0  0  0  0  0  0  0
    8.0856    4.7116    0.0000 C   0  0  0  0  0  0  0  0  0  0  0  0
    3.9405   -0.4767    0.0000 C   0  0  0  0  0  0  0  0  0  0  0  0
    4.6071    3.0772    0.0000 C   0  0  0  0  0  0  0  0  0  0  0  0
    5.3760    1.9860    0.0000 C   0  0  0  0  0  0  0  0  0  0  0  0
    6.8854    2.1180    0.0000 C   0  0  0  0  0  0  0  0  0  0  0  0
    0.9980    2.7252    0.0000 C   0  0  0  0  0  0  0  0  0  0  0  0
    7.4120   -0.3517    0.0000 C   0  0  0  0  0  0  0  0  0  0  0  0
    8.7768   -0.8984    0.0000 C   0  0  0  0  0  0  0  0  0  0  0  0
    8.9087    3.5435    0.0000 C   0  0  0  0  0  0  0  0  0  0  0  0
    1.2533    1.9407    0.0000 C   0  0  0  0  0  0  0  0  0  0  0  0
    5.3880    2.8109    0.0000 C   0  0  0  0  0  0  0  0  0  0  0  0
    2.2565    5.4942    0.0000 C   0  0  0  0  0  0  0  0  0  0  0  0
    7.4855    3.4148    0.0000 C   0  0  0  0  0  0  0  0  0  0  0  0
    4.1126    2.4168    0.0000 C   0  0  0  0  0  0  0  0  0  0  0  0
    4.5878    1.7424    0.0000 C   0  0  0  0  0  0  0  0  0  0  0  0
    7.6342    1.7715    0.0000 C   0  0  0  0  0  0  0  0  0  0  0  0
    8.2337   -0.2774    0.0000 C   0  0  0  0  0  0  0  0  0  0  0  0
    8.8343    4.3652    0.0000 C   0  0  0  0  0  0  0  0  0  0  0  0
    6.8111    2.9396    0.0000 C   0  0  0  0  0  0  0  0  0  0  0  0
    8.2342    3.0683    0.0000 C   0  0  0  0  0  0  0  0  0  0  0  0
    3.3918    2.8183    0.0000 C   0  0  0  0  0  0  0  0  0  0  0  0
    7.7085    0.9498    0.0000 C   0  0  0  0  0  0  0  0  0  0  0  0
    4.7233    0.9286    0.0000 C   0  0  0  0  0  0  0  0  0  0  0  0
    1.7307    3.3757    0.0000 C   0  0  0  0  0  0  0  0  0  0  0  0
    1.8051    2.5540    0.0000 C   0  0  0  0  0  0  0  0  0  0  0  0
    8.3086    2.2467    0.0000 N   0  0  0  0  0  0  0  0  0  0  0  0
    8.4169    0.5270    0.0000 N   0  0  0  0  0  0  0  0  0  0  0  0
    2.5683    2.8672    0.0000 N   0  0  0  0  0  0  0  0  0  0  0  0
    2.4051    3.8509    0.0000 N   0  0  0  0  0  0  0  0  0  0  0  0
    4.4923    0.1366    0.0000 N   0  0  0  0  0  0  0  0  0  0  0  0
    3.6228    3.6103    0.0000 O   0  0  0  0  0  0  0  0  0  0  0  0
    5.5468    0.8797    0.0000 O   0  0  0  0  0  0  0  0  0  0  0  0
    0.9820    3.7222    0.0000 O   0  0  0  0  0  0  0  0  0  0  0  0
    3.1525    4.7468    0.0000 O   0  0  0  0  0  0  0  0  0  0  0  0
    1.5092    4.5982    0.0000 O   0  0  0  0  0  0  0  0  0  0  0  0
    9.5087    4.8403    0.0000 O   0  0  0  0  0  0  0  0  0  0  0  0
    6.0624    3.2861    0.0000 O   0  0  0  0  0  0  0  0  0  0  0  0
    7.0874    0.4068    0.0000 S   0  0  0  0  0  0  0  0  0  0  0  0
    2.3308    4.6725    0.0000 S   0  0  0  0  0  0  0  0  0  0  0  0
    0.0000    0.0000    0.0000 H   0  0  0  0  0  0  0  0  0  0  0  0
    0.0000    0.0000    0.0000 H   0  0  0  0  0  0  0  0  0  0  0  0
    0.0000    0.0000    0.0000 H   0  0  0  0  0  0  0  0  0  0  0  0
    0.0000    0.0000    0.0000 H   0  0  0  0  0  0  0  0  0  0  0  0
    0.0000    0.0000    0.0000 H   0  0  0  0  0  0  0  0  0  0  0  0
    0.0000    0.0000    0.0000 H   0  0  0  0  0  0  0  0  0  0  0  0
    0.0000    0.0000    0.0000 H   0  0  0  0  0  0  0  0  0  0  0  0
    0.0000    0.0000    0.0000 H   0  0  0  0  0  0  0  0  0  0  0  0
    0.0000    0.0000    0.0000 H   0  0  0  0  0  0  0  0  0  0  0  0
    0.0000    0.0000    0.0000 H   0  0  0  0  0  0  0  0  0  0  0  0
    0.0000    0.0000    0.0000 H   0  0  0  0  0  0  0  0  0  0  0  0
    0.0000    0.0000    0.0000 H   0  0  0  0  0  0  0  0  0  0  0  0
    0.0000    0.0000    0.0000 H   0  0  0  0  0  0  0  0  0  0  0  0
    0.0000    0.0000    0.0000 H   0  0  0  0  0  0  0  0  0  0  0  0
    0.0000    0.0000    0.0000 H   0  0  0  0  0  0  0  0  0  0  0  0
    0.0000    0.0000    0.0000 H   0  0  0  0  0  0  0  0  0  0  0  0
    0.0000    0.0000    0.0000 H   0  0  0  0  0  0  0  0  0  0  0  0
    0.0000    0.0000    0.0000 H   0  0  0  0  0  0  0  0  0  0  0  0
    0.0000    0.0000    0.0000 H   0  0  0  0  0  0  0  0  0  0  0  0
    0.0000    0.0000    0.0000 H   0  0  0  0  0  0  0  0  0  0  0  0
    0.0000    0.0000    0.0000 H   0  0  0  0  0  0  0  0  0  0  0  0
    0.0000    0.0000    0.0000 H   0  0  0  0  0  0  0  0  0  0  0  0
    0.0000    0.0000    0.0000 H   0  0  0  0  0  0  0  0  0  0  0  0
    0.0000    0.0000    0.0000 H   0  0  0  0  0  0  0  0  0  0  0  0
    0.0000    0.0000    0.0000 H   0  0  0  0  0  0  0  0  0  0  0  0
    0.0000    0.0000    0.0000 H   0  0  0  0  0  0  0  0  0  0  0  0
    0.0000    0.0000    0.0000 H   0  0  0  0  0  0  0  0  0  0  0  0
    0.0000    0.0000    0.0000 H   0  0  0  0  0  0  0  0  0  0  0  0
    0.0000    0.0000    0.0000 H   0  0  0  0  0  0  0  0  0  0  0  0
    0.0000    0.0000    0.0000 H   0  0  0  0  0  0  0  0  0  0  0  0
    0.0000    0.0000    0.0000 H   0  0  0  0  0  0  0  0  0  0  0  0
    0.0000    0.0000    0.0000 H   0  0  0  0  0  0  0  0  0  0  0  0
    0.0000    0.0000    0.0000 H   0  0  0  0  0  0  0  0  0  0  0  0
    0.0000    0.0000    0.0000 H   0  0  0  0  0  0  0  0  0  0  0  0
    0.0000    0.0000    0.0000 H   0  0  0  0  0  0  0  0  0  0  0  0
    0.0000    0.0000    0.0000 H   0  0  0  0  0  0  0  0  0  0  0  0
    0.0000    0.0000    0.0000 H   0  0  0  0  0  0  0  0  0  0  0  0
    0.0000    0.0000    0.0000 H   0  0  0  0  0  0  0  0  0  0  0  0
    0.0000    0.0000    0.0000 H   0  0  0  0  0  0  0  0  0  0  0  0
    0.0000    0.0000    0.0000 H   0  0  0  0  0  0  0  0  0  0  0  0
    0.0000    0.0000    0.0000 H   0  0  0  0  0  0  0  0  0  0  0  0
    0.0000    0.0000    0.0000 H   0  0  0  0  0  0  0  0  0  0  0  0
    0.0000    0.0000    0.0000 H   0  0  0  0  0  0  0  0  0  0  0  0
    0.0000    0.0000    0.0000 H   0  0  0  0  0  0  0  0  0  0  0  0
    0.0000    0.0000    0.0000 H   0  0  0  0  0  0  0  0  0  0  0  0
    0.0000    0.0000    0.0000 H   0  0  0  0  0  0  0  0  0  0  0  0
    0.0000    0.0000    0.0000 H   0  0  0  0  0  0  0  0  0  0  0  0
  7  6  1  0
  8  6  1  0
  9  7  1  0
 10  8  2  0
 12 11  1  0
 14 13  2  0
 15  9  1  0
 21  1  1  0
 21  2  1  0
 22  3  1  0
 23 10  1  0
 23 19  1  0
 24 16  1  0
 24 17  1  0
 25 11  1  0
 25 12  1  0
 26 13  1  0
 27 16  1  0
 28 17  1  0
 28 27  1  0
 29 18  2  0
 30 20  2  0
 30 21  1  0
 31 14  1  0
 31 22  2  0
 32 18  1  0
 32 26  2  0
 33 22  1  0
 33 26  1  0
 34 27  1  0
 35 29  1  0
 36 28  1  0
 38 19  1  0
 38 23  1  0
 38 37  1  6
 39 29  1  0
 39 33  2  0
 40 30  1  0
 40 35  2  0
 41 34  2  0
 41 38  1  0
 42 37  2  3
 43  4  1  0
 43 15  1  0
 43 36  1  0
 34 44  1  0
 45 36  2  0
 46 37  1  0
 49  5  1  0
 49 31  1  0
 24 50  1  6
 50 32  1  0
 51 20  1  0
 51 35  1  0
 52 25  1  0
 42 52  1  0
 52 47  2  0
 52 48  2  0
  1 53  1  0
  1 54  1  0
  1 55  1  0
  2 56  1  0
  2 57  1  0
  2 58  1  0
  3 59  1  0
  3 60  1  0
  3 61  1  0
  4 62  1  0
  4 63  1  0
  4 64  1  0
  5 65  1  0
  5 66  1  0
  5 67  1  0
  6 68  1  0
  6 69  1  0
  7 70  1  0
  7 71  1  0
  8 72  1  0
  9 73  1  0
  9 74  1  0
 10 75  1  0
 11 76  1  0
 11 77  1  0
 12 78  1  0
 12 79  1  0
 13 80  1  0
 14 81  1  0
 15 82  1  0
 15 83  1  0
 16 84  1  0
 16 85  1  0
 17 86  1  0
 17 87  1  0
 18 88  1  0
 19 89  1  0
 19 90  1  0
 20 91  1  0
 21 92  1  0
 23 93  1  1
 24 94  1  0
 25 95  1  0
 27 96  1  1
 28 97  1  6
 44 98  1  0
 46 99  1  0
M  END
>  <ALOGPS_LOGP>  (1) 
4.82

>  <ALOGPS_LOGS>  (1) 
-5.21

>  <ALOGPS_SOLUBILITY>  (1) 
4.58e-03 g/l

>  <DATABASE_ID>  (1) 
DB06290

>  <DATABASE_NAME>  (1) 
drugbank

>  <DRUGBANK_ID>  (1) 
DB06290

>  <DRUG_GROUPS>  (1) 
approved

>  <EXACT_MASS>  (1) 
749.291690263

>  <FORMULA>  (1) 
C38H47N5O7S2

>  <GENERIC_NAME>  (1) 
Simeprevir

>  <INCHI_IDENTIFIER>  (1) 
InChI=1S/C38H47N5O7S2/c1-21(2)30-20-51-35(40-30)29-18-32(26-13-14-31(49-5)22(3)33(26)39-29)50-24-16-27-28(17-24)36(45)43(4)15-9-7-6-8-10-23-19-38(23,41-34(27)44)37(46)42-52(47,48)25-11-12-25/h8,10,13-14,18,20-21,23-25,27-28H,6-7,9,11-12,15-17,19H2,1-5H3,(H,41,44)(H,42,46)/b10-8-/t23-,24-,27-,28-,38-/m1/s1

>  <INCHI_KEY>  (1) 
JTZZSQYMACOLNN-VDWJNHBNSA-N

>  <JCHEM_ACCEPTOR_COUNT>  (1) 
11

>  <JCHEM_AVERAGE_POLARIZABILITY>  (1) 
80.17999739000194

>  <JCHEM_BIOAVAILABILITY>  (1) 
0

>  <JCHEM_DONOR_COUNT>  (1) 
2

>  <JCHEM_FORMAL_CHARGE>  (1) 
0

>  <JCHEM_GHOSE_FILTER>  (1) 
0

>  <JCHEM_IUPAC>  (1) 
(1R,4R,6S,7Z,15R,17R)-N-(cyclopropanesulfonyl)-2-hydroxy-17-({7-methoxy-8-methyl-2-[4-(propan-2-yl)-1,3-thiazol-2-yl]quinolin-4-yl}oxy)-13-methyl-14-oxo-3,13-diazatricyclo[13.3.0.0⁴,⁶]octadeca-2,7-diene-4-carboximidic acid

>  <JCHEM_LOGP>  (1) 
5.74385919

>  <JCHEM_MDDR_LIKE_RULE>  (1) 
1

>  <JCHEM_NUMBER_OF_RINGS>  (1) 
7

>  <JCHEM_PHYSIOLOGICAL_CHARGE>  (1) 
-1

>  <JCHEM_PKA>  (1) 
6.803439869274434

>  <JCHEM_PKA_STRONGEST_ACIDIC>  (1) 
5.867461260457026

>  <JCHEM_PKA_STRONGEST_BASIC>  (1) 
1.7045384875086516

>  <JCHEM_POLAR_SURFACE_AREA>  (1) 
163.86999999999998

>  <JCHEM_REFRACTIVITY>  (1) 
207.79280000000008

>  <JCHEM_ROTATABLE_BOND_COUNT>  (1) 
7

>  <JCHEM_RULE_OF_FIVE>  (1) 
0

>  <JCHEM_TRADITIONAL_IUPAC>  (1) 
(1R,4R,6S,7Z,15R,17R)-N-(cyclopropanesulfonyl)-2-hydroxy-17-{[2-(4-isopropyl-1,3-thiazol-2-yl)-7-methoxy-8-methylquinolin-4-yl]oxy}-13-methyl-14-oxo-3,13-diazatricyclo[13.3.0.0⁴,⁶]octadeca-2,7-diene-4-carboximidic acid

>  <JCHEM_VEBER_RULE>  (1) 
0

>  <MOLECULAR_WEIGHT>  (1) 
749.939

>  <PRODUCTS>  (1) 
Galexos; Olysio

>  <SALTS>  (1) 
Simeprevir sodium

>  <SMILES>  (1) 
[H]\C1=C([H])\[C@]2([H])C[C@]2(N=C(O)[C@]2([H])C[C@]([H])(C[C@@]2([H])C(=O)N(C)CCCC1)OC1=C2C=CC(OC)=C(C)C2=NC(=C1)C1=NC(=CS1)C(C)C)C(O)=NS(=O)(=O)C1CC1

$$$$
