Structure #1
     RDKit          2D

 14 13  0  0  0  0  0  0  0  0999 V2000
    1.2375   -0.7145    0.0000 C   0  0  0  0  0  0  0  0  0  0  0  0
    1.2375    0.7145    0.0000 C   0  0  0  0  0  0  0  0  0  0  0  0
    0.8250    0.0000    0.0000 C   0  0  0  0  0  0  0  0  0  0  0  0
    0.8250   -1.4289    0.0000 O   0  0  0  0  0  0  0  0  0  0  0  0
    0.8250    1.4289    0.0000 S   0  0  0  0  0  0  0  0  0  0  0  0
    0.0000    0.0000    0.0000 S   0  0  0  0  0  0  0  0  0  0  0  0
    0.0000    0.0000    0.0000 H   0  0  0  0  0  0  0  0  0  0  0  0
    0.0000    0.0000    0.0000 H   0  0  0  0  0  0  0  0  0  0  0  0
    0.0000    0.0000    0.0000 H   0  0  0  0  0  0  0  0  0  0  0  0
    0.0000    0.0000    0.0000 H   0  0  0  0  0  0  0  0  0  0  0  0
    0.0000    0.0000    0.0000 H   0  0  0  0  0  0  0  0  0  0  0  0
    0.0000    0.0000    0.0000 H   0  0  0  0  0  0  0  0  0  0  0  0
    0.0000    0.0000    0.0000 H   0  0  0  0  0  0  0  0  0  0  0  0
    0.0000    0.0000    0.0000 H   0  0  0  0  0  0  0  0  0  0  0  0
  1  3  1  0
  1  4  1  0
  2  3  1  0
  2  5  1  0
  3  6  1  0
  1  7  1  0
  1  8  1  0
  2  9  1  0
  2 10  1  0
  3 11  1  0
  4 12  1  0
  5 13  1  0
  6 14  1  0
M  END
>  <ALOGPS_LOGP>  (1) 
0.58

>  <ALOGPS_LOGS>  (1) 
-1.65

>  <ALOGPS_SOLUBILITY>  (1) 
2.76e+00 g/l

>  <DATABASE_ID>  (1) 
DB06782

>  <DATABASE_NAME>  (1) 
drugbank

>  <DRUGBANK_ID>  (1) 
DB06782

>  <DRUG_GROUPS>  (1) 
approved

>  <EXACT_MASS>  (1) 
124.001656258

>  <FORMULA>  (1) 
C3H8OS2

>  <GENERIC_NAME>  (1) 
Dimercaprol

>  <INCHI_IDENTIFIER>  (1) 
InChI=1S/C3H8OS2/c4-1-3(6)2-5/h3-6H,1-2H2

>  <INCHI_KEY>  (1) 
WQABCVAJNWAXTE-UHFFFAOYSA-N

>  <INTERNATIONAL_BRANDS>  (1) 
Bal In Oil Injection; Dimaval; Dimercaprol; TechneScan DMSA

>  <JCHEM_ACCEPTOR_COUNT>  (1) 
1

>  <JCHEM_AVERAGE_POLARIZABILITY>  (1) 
12.882351050960342

>  <JCHEM_BIOAVAILABILITY>  (1) 
1

>  <JCHEM_DONOR_COUNT>  (1) 
3

>  <JCHEM_FORMAL_CHARGE>  (1) 
0

>  <JCHEM_GHOSE_FILTER>  (1) 
0

>  <JCHEM_IUPAC>  (1) 
2,3-disulfanylpropan-1-ol

>  <JCHEM_LOGP>  (1) 
0.2117348820000001

>  <JCHEM_MDDR_LIKE_RULE>  (1) 
0

>  <JCHEM_NUMBER_OF_RINGS>  (1) 
0

>  <JCHEM_PHYSIOLOGICAL_CHARGE>  (1) 
0

>  <JCHEM_PKA>  (1) 
10.406150928608998

>  <JCHEM_PKA_STRONGEST_ACIDIC>  (1) 
9.578213305111195

>  <JCHEM_PKA_STRONGEST_BASIC>  (1) 
-2.755439743023877

>  <JCHEM_POLAR_SURFACE_AREA>  (1) 
20.23

>  <JCHEM_REFRACTIVITY>  (1) 
32.9087

>  <JCHEM_ROTATABLE_BOND_COUNT>  (1) 
2

>  <JCHEM_RULE_OF_FIVE>  (1) 
1

>  <JCHEM_TRADITIONAL_IUPAC>  (1) 
dimercaprol

>  <JCHEM_VEBER_RULE>  (1) 
1

>  <MOLECULAR_WEIGHT>  (1) 
124.225

>  <PRODUCTS>  (1) 
Bal; Bal In Oil 3ml Ampules/10

>  <SMILES>  (1) 
OCC(S)CS

$$$$
