
     RDKit          2D

 63 66  0  0  0  0  0  0  0  0999 V2000
   -2.8878   -0.7838    0.0000 O   0  0  0  0  0  0  0  0  0  0  0  0
   -2.4752   -1.5264    0.0000 C   0  0  0  0  0  0  0  0  0  0  0  0
   -1.6502   -1.5264    0.0000 C   0  0  0  0  0  0  0  0  0  0  0  0
   -1.2376   -0.7838    0.0000 N   0  0  0  0  0  0  0  0  0  0  0  0
    0.8250   -1.5264    0.0000 C   0  0  0  0  0  0  0  0  0  0  0  0
    1.6501   -1.5264    0.0000 C   0  0  0  0  0  0  0  0  0  0  0  0
    2.0626   -0.8250    0.0000 O   0  0  0  0  0  0  0  0  0  0  0  0
    0.4125   -0.8250    0.0000 N   0  0  0  0  0  0  0  0  0  0  0  0
   -1.2376    0.8662    0.0000 N   0  0  0  0  0  0  0  0  0  0  0  0
   -1.6502    1.5675    0.0000 C   0  0  0  0  0  0  0  0  0  0  0  0
   -2.4752    1.5675    0.0000 C   0  0  0  0  0  0  0  0  0  0  0  0
   -2.8878    0.8662    0.0000 O   0  0  0  0  0  0  0  0  0  0  0  0
    2.0626    0.8662    0.0000 O   0  0  0  0  0  0  0  0  0  0  0  0
    1.6501    1.5675    0.0000 C   0  0  0  0  0  0  0  0  0  0  0  0
    0.8250    1.5675    0.0000 C   0  0  0  0  0  0  0  0  0  0  0  0
    0.4125    0.8662    0.0000 N   0  0  0  0  0  0  0  0  0  0  0  0
    1.1138   -0.4125    0.0000 C   0  0  0  0  0  0  0  0  0  0  0  0
    1.1138    0.4125    0.0000 C   0  0  0  0  0  0  0  0  0  0  0  0
   -0.8251   -1.5264    0.0000 C   0  0  0  0  0  0  0  0  0  0  0  0
    0.0000   -1.5264    0.0000 C   0  0  0  0  0  0  0  0  0  0  0  0
   -1.9802    0.4537    0.0000 C   0  0  0  0  0  0  0  0  0  0  0  0
   -1.9802   -0.3713    0.0000 C   0  0  0  0  0  0  0  0  0  0  0  0
    0.0000    1.5675    0.0000 C   0  0  0  0  0  0  0  0  0  0  0  0
   -0.8251    1.5675    0.0000 C   0  0  0  0  0  0  0  0  0  0  0  0
    2.0626    2.2690    0.0000 O   0  0  0  0  0  0  0  0  0  0  0  0
   -2.8878   -2.2277    0.0000 O   0  0  0  0  0  0  0  0  0  0  0  0
   -2.8878    2.2690    0.0000 O   0  0  0  0  0  0  0  0  0  0  0  0
    0.4125   -2.2277    0.0000 C   0  0  0  0  0  0  0  0  0  0  0  0
   -0.4125   -2.2690    0.0000 O   0  0  0  0  0  0  0  0  0  0  0  0
    2.0626   -2.2277    0.0000 C   0  0  0  0  0  0  0  0  0  0  0  0
    2.8878   -2.2690    0.0000 O   0  0  0  0  0  0  0  0  0  0  0  0
   -0.3648    0.0753    0.0000 Gd  0  0  0  0  0  0  0  0  0  0  0  0
    0.0000    0.0000    0.0000 H   0  0  0  0  0  0  0  0  0  0  0  0
    0.0000    0.0000    0.0000 H   0  0  0  0  0  0  0  0  0  0  0  0
    0.0000    0.0000    0.0000 H   0  0  0  0  0  0  0  0  0  0  0  0
    0.0000    0.0000    0.0000 H   0  0  0  0  0  0  0  0  0  0  0  0
    0.0000    0.0000    0.0000 H   0  0  0  0  0  0  0  0  0  0  0  0
    0.0000    0.0000    0.0000 H   0  0  0  0  0  0  0  0  0  0  0  0
    0.0000    0.0000    0.0000 H   0  0  0  0  0  0  0  0  0  0  0  0
    0.0000    0.0000    0.0000 H   0  0  0  0  0  0  0  0  0  0  0  0
    0.0000    0.0000    0.0000 H   0  0  0  0  0  0  0  0  0  0  0  0
    0.0000    0.0000    0.0000 H   0  0  0  0  0  0  0  0  0  0  0  0
    0.0000    0.0000    0.0000 H   0  0  0  0  0  0  0  0  0  0  0  0
    0.0000    0.0000    0.0000 H   0  0  0  0  0  0  0  0  0  0  0  0
    0.0000    0.0000    0.0000 H   0  0  0  0  0  0  0  0  0  0  0  0
    0.0000    0.0000    0.0000 H   0  0  0  0  0  0  0  0  0  0  0  0
    0.0000    0.0000    0.0000 H   0  0  0  0  0  0  0  0  0  0  0  0
    0.0000    0.0000    0.0000 H   0  0  0  0  0  0  0  0  0  0  0  0
    0.0000    0.0000    0.0000 H   0  0  0  0  0  0  0  0  0  0  0  0
    0.0000    0.0000    0.0000 H   0  0  0  0  0  0  0  0  0  0  0  0
    0.0000    0.0000    0.0000 H   0  0  0  0  0  0  0  0  0  0  0  0
    0.0000    0.0000    0.0000 H   0  0  0  0  0  0  0  0  0  0  0  0
    0.0000    0.0000    0.0000 H   0  0  0  0  0  0  0  0  0  0  0  0
    0.0000    0.0000    0.0000 H   0  0  0  0  0  0  0  0  0  0  0  0
    0.0000    0.0000    0.0000 H   0  0  0  0  0  0  0  0  0  0  0  0
    0.0000    0.0000    0.0000 H   0  0  0  0  0  0  0  0  0  0  0  0
    0.0000    0.0000    0.0000 H   0  0  0  0  0  0  0  0  0  0  0  0
    0.0000    0.0000    0.0000 H   0  0  0  0  0  0  0  0  0  0  0  0
    0.0000    0.0000    0.0000 H   0  0  0  0  0  0  0  0  0  0  0  0
    0.0000    0.0000    0.0000 H   0  0  0  0  0  0  0  0  0  0  0  0
    0.0000    0.0000    0.0000 H   0  0  0  0  0  0  0  0  0  0  0  0
    0.0000    0.0000    0.0000 H   0  0  0  0  0  0  0  0  0  0  0  0
    0.0000    0.0000    0.0000 H   0  0  0  0  0  0  0  0  0  0  0  0
 15 16  1  0
  3  4  1  0
  8 17  1  0
 17 18  1  0
 18 16  1  0
  1  2  1  0
  4 19  1  0
 19 20  1  0
 20  8  1  0
  9 10  1  0
 10 11  1  0
 21 22  1  0
 22  4  1  0
  9 21  1  0
 11 12  1  0
  2  3  1  0
 16 23  1  0
 23 24  1  0
 24  9  1  0
  5  6  1  0
 14 25  2  0
  6  7  1  1
  5  8  1  6
  2 26  2  0
 13 14  1  0
 11 27  2  0
 14 15  1  0
  5 28  1  0
 28 29  1  0
  6 30  1  0
 30 31  1  0
  9 32  1  0
 32 16  1  0
  8 32  1  0
  4 32  1  0
  3 33  1  0
  3 34  1  0
  5 35  1  0
  6 36  1  0
  7 37  1  0
 10 38  1  0
 10 39  1  0
 15 40  1  0
 15 41  1  0
 17 42  1  0
 17 43  1  0
 18 44  1  0
 18 45  1  0
 19 46  1  0
 19 47  1  0
 20 48  1  0
 20 49  1  0
 21 50  1  0
 21 51  1  0
 22 52  1  0
 22 53  1  0
 23 54  1  0
 23 55  1  0
 24 56  1  0
 24 57  1  0
 28 58  1  0
 28 59  1  0
 29 60  1  0
 30 61  1  0
 30 62  1  0
 31 63  1  0
M  CHG  8   1  -1   4   1   8   1   9   1  12  -1  13  -1  16   1  32  -1
M  END
>  <ALOGPS_LOGP>  (1) 
0.35

>  <ALOGPS_LOGS>  (1) 
-4.19

>  <ALOGPS_SOLUBILITY>  (1) 
4.96e-02 g/l

>  <DATABASE_ID>  (1) 
DB06703

>  <DATABASE_NAME>  (1) 
drugbank

>  <DRUGBANK_ID>  (1) 
DB06703

>  <DRUG_GROUPS>  (1) 
approved

>  <EXACT_MASS>  (1) 
605.13321

>  <FORMULA>  (1) 
C18H31GdN4O9

>  <GENERIC_NAME>  (1) 
Gadobutrol

>  <INCHI_IDENTIFIER>  (1) 
InChI=1S/C18H34N4O9.Gd/c23-12-14(15(25)13-24)22-7-5-20(10-17(28)29)3-1-19(9-16(26)27)2-4-21(6-8-22)11-18(30)31;/h14-15,23-25H,1-13H2,(H,26,27)(H,28,29)(H,30,31);/q;+3/p-3/t14-,15-;/m0./s1

>  <INCHI_KEY>  (1) 
ZPDFIIGFYAHNSK-YYLIZZNMSA-K

>  <INTERNATIONAL_BRANDS>  (1) 
Gadovist

>  <JCHEM_ACCEPTOR_COUNT>  (1) 
9

>  <JCHEM_ATOM_COUNT>  (1) 
63

>  <JCHEM_AVERAGE_POLARIZABILITY>  (1) 
45.38673786287328

>  <JCHEM_BIOAVAILABILITY>  (1) 
1

>  <JCHEM_DONOR_COUNT>  (1) 
3

>  <JCHEM_FORMAL_CHARGE>  (1) 
0

>  <JCHEM_GHOSE_FILTER>  (1) 
0

>  <JCHEM_IUPAC>  (1) 
4,7,10-tris(carboxymethyl)-1-[(2S,3R)-1,3,4-trihydroxybutan-2-yl]-1,4,7,10-tetraaza-13-gadolinatetracyclo[5.5.1.0^{4,13}.0^{10,13}]tridecane-1,4,7,10-tetraium-13-uide

>  <JCHEM_LOGP>  (1) 
-4.570196765886983

>  <JCHEM_MDDR_LIKE_RULE>  (1) 
1

>  <JCHEM_NUMBER_OF_RINGS>  (1) 
4

>  <JCHEM_PHYSIOLOGICAL_CHARGE>  (1) 
0

>  <JCHEM_PKA>  (1) 
1.5013825825545597

>  <JCHEM_PKA_STRONGEST_ACIDIC>  (1) 
0.9854243276330443

>  <JCHEM_PKA_STRONGEST_BASIC>  (1) 
-3.020261160383596

>  <JCHEM_POLAR_SURFACE_AREA>  (1) 
181.07999999999996

>  <JCHEM_REFRACTIVITY>  (1) 
143.46679999999998

>  <JCHEM_ROTATABLE_BOND_COUNT>  (1) 
10

>  <JCHEM_RULE_OF_FIVE>  (1) 
0

>  <JCHEM_TRADITIONAL_IUPAC>  (1) 
4,7,10-tris(carboxymethyl)-1-[(2S,3R)-1,3,4-trihydroxybutan-2-yl]-1,4,7,10-tetraaza-13-gadolinatetracyclo[5.5.1.0^{4,13}.0^{10,13}]tridecane-1,4,7,10-tetraium-13-uide

>  <JCHEM_VEBER_RULE>  (1) 
0

>  <MOLECULAR_WEIGHT>  (1) 
604.72

>  <PRODUCTS>  (1) 
Gadavist; Gadovist 1.0

>  <SMILES>  (1) 
OC[C@H](O)[C@H](CO)[N+]12CC[N+]3(CC([O-])=O)CC[N+]4(CC([O-])=O)CC[N+](CC([O-])=O)(CC1)[Gd-]234

>  <SYNONYMS>  (1) 
gadolinium(III) 2,2',2''-(10-((2R,3S )-1,3,4-trihydroxybutan-2-yl)-1,4,7,10-tetraazacyclododecane-1,4,7-triyl)triacetate

$$$$
