
     RDKit          2D

 91 92  0  0  0  0  0  0  0  0999 V2000
    8.4772  -13.1404    0.0000 C   0  0  0  0  0  0  0  0  0  0  0  0
    8.4772  -12.3150    0.0000 C   0  0  0  0  0  0  0  0  0  0  0  0
    7.7636  -13.5549    0.0000 C   0  0  0  0  0  0  0  0  0  0  0  0
    9.1943  -13.5477    0.0000 N   0  0  0  0  0  0  0  0  0  0  0  0
    9.1943  -11.9042    0.0000 N   0  0  0  0  0  0  0  0  0  0  0  0
    7.7636  -11.9078    0.0000 C   0  0  0  0  0  0  0  0  0  0  0  0
    7.7636  -14.3767    0.0000 C   0  0  0  0  0  0  0  0  0  0  0  0
    9.1943  -14.3731    0.0000 C   0  0  0  0  0  0  0  0  0  0  0  0
    9.9044  -12.3115    0.0000 C   0  0  0  0  0  0  0  0  0  0  0  0
    7.0499  -12.3187    0.0000 N   0  0  0  0  0  0  0  0  0  0  0  0
    7.7239  -11.3131    0.0000 O   0  0  0  0  0  0  0  0  0  0  0  0
    8.4772  -14.7875    0.0000 N   0  0  0  0  0  0  0  0  0  0  0  0
    7.0499  -14.7912    0.0000 O   0  0  0  0  0  0  0  0  0  0  0  0
    9.9080  -14.7875    0.0000 N   0  0  0  0  0  0  0  0  0  0  0  0
   10.6216  -11.9006    0.0000 C   0  0  0  0  0  0  0  0  0  0  0  0
    9.9009  -13.1369    0.0000 O   0  0  0  0  0  0  0  0  0  0  0  0
    6.3399  -11.9078    0.0000 C   0  0  0  0  0  0  0  0  0  0  0  0
   10.6216  -11.0788    0.0000 N   0  0  0  0  0  0  0  0  0  0  0  0
   11.3316  -12.3079    0.0000 C   0  0  0  0  0  0  0  0  0  0  0  0
    6.3399  -11.0896    0.0000 C   0  0  0  0  0  0  0  0  0  0  0  0
    9.9044  -10.6679    0.0000 C   0  0  0  0  0  0  0  0  0  0  0  0
   12.0489  -11.8970    0.0000 N   0  0  0  0  0  0  0  0  0  0  0  0
    7.0607  -10.6788    0.0000 C   0  0  0  0  0  0  0  0  0  0  0  0
    5.6335  -10.6860    0.0000 N   0  0  0  0  0  0  0  0  0  0  0  0
    9.9044   -9.8534    0.0000 C   0  0  0  0  0  0  0  0  0  0  0  0
    9.1872  -11.0788    0.0000 O   0  0  0  0  0  0  0  0  0  0  0  0
   12.7590  -12.3042    0.0000 C   0  0  0  0  0  0  0  0  0  0  0  0
    7.0571   -9.8571    0.0000 N   0  0  0  0  0  0  0  0  0  0  0  0
    7.6086  -10.8626    0.0000 O   0  0  0  0  0  0  0  0  0  0  0  0
    4.9199  -11.0969    0.0000 C   0  0  0  0  0  0  0  0  0  0  0  0
    9.1943   -9.4390    0.0000 N   0  0  0  0  0  0  0  0  0  0  0  0
   10.6216   -9.4353    0.0000 C   0  0  0  0  0  0  0  0  0  0  0  0
   13.4762  -11.8933    0.0000 N   0  0  0  0  0  0  0  0  0  0  0  0
   12.7553  -13.1296    0.0000 O   0  0  0  0  0  0  0  0  0  0  0  0
    7.7636   -9.4426    0.0000 C   0  0  0  0  0  0  0  0  0  0  0  0
    4.2062  -10.6860    0.0000 C   0  0  0  0  0  0  0  0  0  0  0  0
    4.9234  -11.9222    0.0000 O   0  0  0  0  0  0  0  0  0  0  0  0
    8.4772   -9.8534    0.0000 C   0  0  0  0  0  0  0  0  0  0  0  0
   11.3316   -9.8462    0.0000 O   0  0  0  0  0  0  0  0  0  0  0  0
    7.7599   -8.6136    0.0000 C   0  0  0  0  0  0  0  0  0  0  0  0
    3.4925  -11.1004    0.0000 C   0  0  0  0  0  0  0  0  0  0  0  0
    8.4736  -10.6788    0.0000 O   0  0  0  0  0  0  0  0  0  0  0  0
    8.4736   -8.1954    0.0000 O   0  0  0  0  0  0  0  0  0  0  0  0
    2.7789  -10.6896    0.0000 C   0  0  0  0  0  0  0  0  0  0  0  0
    3.4890  -11.9259    0.0000 N   0  0  0  0  0  0  0  0  0  0  0  0
    2.0653  -11.1041    0.0000 C   0  0  0  0  0  0  0  0  0  0  0  0
    1.3625  -10.6968    0.0000 C   0  0  0  0  0  0  0  0  0  0  0  0
    0.6453  -11.1076    0.0000 N   0  0  0  0  0  0  0  0  0  0  0  0
    0.0000    0.0000    0.0000 H   0  0  0  0  0  0  0  0  0  0  0  0
    0.0000    0.0000    0.0000 H   0  0  0  0  0  0  0  0  0  0  0  0
    0.0000    0.0000    0.0000 H   0  0  0  0  0  0  0  0  0  0  0  0
    0.0000    0.0000    0.0000 H   0  0  0  0  0  0  0  0  0  0  0  0
    0.0000    0.0000    0.0000 H   0  0  0  0  0  0  0  0  0  0  0  0
    0.0000    0.0000    0.0000 H   0  0  0  0  0  0  0  0  0  0  0  0
    0.0000    0.0000    0.0000 H   0  0  0  0  0  0  0  0  0  0  0  0
    0.0000    0.0000    0.0000 H   0  0  0  0  0  0  0  0  0  0  0  0
    0.0000    0.0000    0.0000 H   0  0  0  0  0  0  0  0  0  0  0  0
    0.0000    0.0000    0.0000 H   0  0  0  0  0  0  0  0  0  0  0  0
    0.0000    0.0000    0.0000 H   0  0  0  0  0  0  0  0  0  0  0  0
    0.0000    0.0000    0.0000 H   0  0  0  0  0  0  0  0  0  0  0  0
    0.0000    0.0000    0.0000 H   0  0  0  0  0  0  0  0  0  0  0  0
    0.0000    0.0000    0.0000 H   0  0  0  0  0  0  0  0  0  0  0  0
    0.0000    0.0000    0.0000 H   0  0  0  0  0  0  0  0  0  0  0  0
    0.0000    0.0000    0.0000 H   0  0  0  0  0  0  0  0  0  0  0  0
    0.0000    0.0000    0.0000 H   0  0  0  0  0  0  0  0  0  0  0  0
    0.0000    0.0000    0.0000 H   0  0  0  0  0  0  0  0  0  0  0  0
    0.0000    0.0000    0.0000 H   0  0  0  0  0  0  0  0  0  0  0  0
    0.0000    0.0000    0.0000 H   0  0  0  0  0  0  0  0  0  0  0  0
    0.0000    0.0000    0.0000 H   0  0  0  0  0  0  0  0  0  0  0  0
    0.0000    0.0000    0.0000 H   0  0  0  0  0  0  0  0  0  0  0  0
    0.0000    0.0000    0.0000 H   0  0  0  0  0  0  0  0  0  0  0  0
    0.0000    0.0000    0.0000 H   0  0  0  0  0  0  0  0  0  0  0  0
    0.0000    0.0000    0.0000 H   0  0  0  0  0  0  0  0  0  0  0  0
    0.0000    0.0000    0.0000 H   0  0  0  0  0  0  0  0  0  0  0  0
    0.0000    0.0000    0.0000 H   0  0  0  0  0  0  0  0  0  0  0  0
    0.0000    0.0000    0.0000 H   0  0  0  0  0  0  0  0  0  0  0  0
    0.0000    0.0000    0.0000 H   0  0  0  0  0  0  0  0  0  0  0  0
    0.0000    0.0000    0.0000 H   0  0  0  0  0  0  0  0  0  0  0  0
    0.0000    0.0000    0.0000 H   0  0  0  0  0  0  0  0  0  0  0  0
    0.0000    0.0000    0.0000 H   0  0  0  0  0  0  0  0  0  0  0  0
    0.0000    0.0000    0.0000 H   0  0  0  0  0  0  0  0  0  0  0  0
    0.0000    0.0000    0.0000 H   0  0  0  0  0  0  0  0  0  0  0  0
    0.0000    0.0000    0.0000 H   0  0  0  0  0  0  0  0  0  0  0  0
    0.0000    0.0000    0.0000 H   0  0  0  0  0  0  0  0  0  0  0  0
    0.0000    0.0000    0.0000 H   0  0  0  0  0  0  0  0  0  0  0  0
    0.0000    0.0000    0.0000 H   0  0  0  0  0  0  0  0  0  0  0  0
    0.0000    0.0000    0.0000 H   0  0  0  0  0  0  0  0  0  0  0  0
    0.0000    0.0000    0.0000 H   0  0  0  0  0  0  0  0  0  0  0  0
    0.0000    0.0000    0.0000 H   0  0  0  0  0  0  0  0  0  0  0  0
    0.0000    0.0000    0.0000 H   0  0  0  0  0  0  0  0  0  0  0  0
    0.0000    0.0000    0.0000 H   0  0  0  0  0  0  0  0  0  0  0  0
  1  2  1  0
  1  3  1  0
  1  4  1  0
  2  5  1  0
  2  6  1  0
  3  7  1  0
  4  8  1  0
  5  9  1  0
  6 10  1  0
  6 11  2  0
  7 12  1  0
  7 13  1  1
  8 14  2  3
  9 15  1  0
  9 16  2  0
 10 17  1  0
 15 18  1  0
 15 19  2  0
 17 20  1  0
 18 21  1  0
 19 22  1  0
 20 23  1  0
 20 24  1  6
 21 25  1  0
 21 26  2  0
 22 27  1  0
 23 28  1  0
 23 29  2  0
 24 30  1  0
 25 31  1  0
 25 32  1  1
 27 33  1  0
 27 34  2  0
 28 35  1  0
 30 36  1  0
 30 37  2  0
 31 38  1  0
 32 39  1  0
 35 40  1  1
 41 36  1  1
 38 42  2  0
 40 43  1  0
 41 44  1  0
 41 45  1  0
 44 46  1  0
 46 47  1  0
 47 48  1  0
  8 12  1  0
 35 38  1  0
  1 49  1  1
  2 50  1  6
  3 51  1  0
  3 52  1  0
  4 53  1  0
  5 54  1  0
  7 55  1  0
 10 56  1  0
 12 57  1  0
 13 58  1  0
 14 59  1  0
 17 60  1  0
 17 61  1  0
 18 62  1  0
 19 63  1  0
 20 64  1  0
 22 65  1  0
 24 66  1  0
 25 67  1  0
 28 68  1  0
 31 69  1  0
 32 70  1  0
 32 71  1  0
 33 72  1  0
 33 73  1  0
 35 74  1  0
 36 75  1  0
 36 76  1  0
 39 77  1  0
 40 78  1  0
 40 79  1  0
 41 80  1  0
 43 81  1  0
 44 82  1  0
 44 83  1  0
 45 84  1  0
 45 85  1  0
 46 86  1  0
 46 87  1  0
 47 88  1  0
 47 89  1  0
 48 90  1  0
 48 91  1  0
M  END
>  <ALOGPS_LOGP>  (1) 
-3.43

>  <ALOGPS_LOGS>  (1) 
-2.82

>  <ALOGPS_SOLUBILITY>  (1) 
1.04e+00 g/l

>  <DATABASE_ID>  (1) 
DB06827

>  <DATABASE_NAME>  (1) 
drugbank

>  <DRUGBANK_ID>  (1) 
DB06827

>  <DRUG_GROUPS>  (1) 
approved

>  <EXACT_MASS>  (1) 
685.325584661

>  <FORMULA>  (1) 
C25H43N13O10

>  <GENERIC_NAME>  (1) 
Viomycin

>  <INCHI_IDENTIFIER>  (1) 
InChI=1S/C25H43N13O10/c26-3-1-2-10(27)4-16(41)32-12-6-30-23(47)18(11-5-17(42)37-24(28)36-11)38-20(44)13(7-31-25(29)48)33-21(45)14(8-39)35-22(46)15(9-40)34-19(12)43/h7,10-12,14-15,17-18,39-40,42H,1-6,8-9,26-27H2,(H,30,47)(H,32,41)(H,33,45)(H,34,43)(H,35,46)(H,38,44)(H3,28,36,37)(H3,29,31,48)/b13-7-/t10-,11+,12-,14-,15-,17-,18-/m0/s1

>  <INCHI_KEY>  (1) 
GXFAIFRPOKBQRV-GHXCTMGLSA-N

>  <JCHEM_ACCEPTOR_COUNT>  (1) 
15

>  <JCHEM_AVERAGE_POLARIZABILITY>  (1) 
66.94696643167276

>  <JCHEM_BIOAVAILABILITY>  (1) 
0

>  <JCHEM_DONOR_COUNT>  (1) 
16

>  <JCHEM_FORMAL_CHARGE>  (1) 
0

>  <JCHEM_GHOSE_FILTER>  (1) 
0

>  <JCHEM_IUPAC>  (1) 
(3S)-3,6-diamino-N-[(3S,6Z,9S,12S,15S)-6-[(carbamoylamino)methylidene]-3-[(4R,6S)-6-hydroxy-2-imino-1,3-diazinan-4-yl]-9,12-bis(hydroxymethyl)-2,5,8,11,14-pentaoxo-1,4,7,10,13-pentaazacyclohexadecan-15-yl]hexanamide

>  <JCHEM_LOGP>  (1) 
-11.049744552435687

>  <JCHEM_MDDR_LIKE_RULE>  (1) 
0

>  <JCHEM_NUMBER_OF_RINGS>  (1) 
2

>  <JCHEM_PHYSIOLOGICAL_CHARGE>  (1) 
3

>  <JCHEM_PKA>  (1) 
10.870329716414796

>  <JCHEM_PKA_STRONGEST_ACIDIC>  (1) 
10.495507530797434

>  <JCHEM_PKA_STRONGEST_BASIC>  (1) 
10.140995783787142

>  <JCHEM_POLAR_SURFACE_AREA>  (1) 
390.36

>  <JCHEM_REFRACTIVITY>  (1) 
171.4565

>  <JCHEM_ROTATABLE_BOND_COUNT>  (1) 
10

>  <JCHEM_RULE_OF_FIVE>  (1) 
0

>  <JCHEM_TRADITIONAL_IUPAC>  (1) 
viomycine

>  <JCHEM_VEBER_RULE>  (1) 
0

>  <MOLECULAR_WEIGHT>  (1) 
685.69

>  <SALTS>  (1) 
Viomycin sulfate

>  <SMILES>  (1) 
[H][C@@]1(C[C@H](O)NC(=N)N1)[C@]1([H])NC(=O)\C(NC(=O)[C@H](CO)NC(=O)[C@H](CO)NC(=O)[C@H](CNC1=O)NC(=O)C[C@@H](N)CCCN)=C\NC(N)=O

$$$$
