 
     RDKit          2D

 60 63  0  0  1  0  0  0  0  0999 V2000
   12.0577   -8.3470    0.0000 C   0  0  0  0  0  0  0  0  0  0  0  0
   12.0577   -9.1740    0.0000 C   0  0  0  0  0  0  0  0  0  0  0  0
   12.7739   -9.5875    0.0000 N   0  0  0  0  0  0  0  0  0  0  0  0
   13.4902   -9.1740    0.0000 C   0  0  0  0  0  0  0  0  0  0  0  0
   13.4902   -8.3470    0.0000 N   0  0  0  0  0  0  0  0  0  0  0  0
   12.7739   -7.9335    0.0000 C   0  0  0  0  0  0  0  0  0  0  0  0
   14.2175   -9.5940    0.0000 C   0  0  0  0  0  0  0  0  0  0  0  0
   14.9294   -9.1830    0.0000 N   0  0  0  0  0  0  0  0  0  0  0  0
   15.6278   -9.5864    0.0000 C   0  0  0  0  0  0  0  0  0  0  0  0
   16.3331   -9.1792    0.0000 C   0  0  0  0  0  0  0  0  0  0  0  0
   15.6278  -10.4144    0.0000 O   0  0  0  0  0  0  0  0  0  0  0  0
   17.0348   -9.5844    0.0000 C   0  0  0  0  0  0  0  0  0  0  0  0
   17.7511   -9.1709    0.0000 N   0  0  0  0  0  0  0  0  0  0  0  0
   17.7511   -8.3439    0.0000 C   0  0  0  0  0  0  0  0  0  0  0  0
   17.0494   -7.9387    0.0000 N   0  0  0  0  0  0  0  0  0  0  0  0
   16.3332   -8.3522    0.0000 C   0  0  0  0  0  0  0  0  0  0  0  0
   18.4757   -7.9255    0.0000 N   0  0  0  0  0  0  0  0  0  0  0  0
   17.0348  -10.8682    0.0000 N   0  0  0  0  0  0  0  0  0  0  0  0
   17.7419  -11.2762    0.0000 C   0  0  0  0  0  0  0  0  0  0  0  0
   18.4593  -10.8617    0.0000 C   0  0  0  0  0  0  0  0  0  0  0  0
   18.4757   -7.1005    0.0000 C   0  0  0  0  0  0  0  0  0  0  0  0
   19.2603   -8.1805    0.0000 C   0  0  0  0  0  0  0  0  0  0  0  0
   19.7453   -7.5130    0.0000 C   0  0  0  0  0  0  0  0  0  0  0  0
   19.2603   -6.8456    0.0000 C   0  0  0  0  0  0  0  0  0  0  0  0
   19.1528  -11.2619    0.0000 C   0  0  0  0  0  0  0  0  0  0  0  0
   19.8672  -10.8492    0.0000 C   0  0  0  0  0  0  0  0  0  0  0  0
   19.8670  -10.0242    0.0000 C   0  0  0  0  0  0  0  0  0  0  0  0
   19.1735   -9.6240    0.0000 C   0  0  0  0  0  0  0  0  0  0  0  0
   18.4591  -10.0367    0.0000 C   0  0  0  0  0  0  0  0  0  0  0  0
   20.5931   -9.6046    0.0000 O   0  0  0  0  0  0  0  0  0  0  0  0
   21.3035  -10.0144    0.0000 C   0  0  0  0  0  0  0  0  0  0  0  0
   20.5929  -11.2681    0.0000 Cl  0  0  0  0  0  0  0  0  0  0  0  0
   19.5118   -8.9543    0.0000 C   0  0  0  0  0  0  0  0  0  0  0  0
   20.3368   -8.9543    0.0000 O   0  0  0  0  0  0  0  0  0  0  0  0
    0.0000    0.0000    0.0000 H   0  0  0  0  0  0  0  0  0  0  0  0
    0.0000    0.0000    0.0000 H   0  0  0  0  0  0  0  0  0  0  0  0
    0.0000    0.0000    0.0000 H   0  0  0  0  0  0  0  0  0  0  0  0
    0.0000    0.0000    0.0000 H   0  0  0  0  0  0  0  0  0  0  0  0
    0.0000    0.0000    0.0000 H   0  0  0  0  0  0  0  0  0  0  0  0
    0.0000    0.0000    0.0000 H   0  0  0  0  0  0  0  0  0  0  0  0
    0.0000    0.0000    0.0000 H   0  0  0  0  0  0  0  0  0  0  0  0
    0.0000    0.0000    0.0000 H   0  0  0  0  0  0  0  0  0  0  0  0
    0.0000    0.0000    0.0000 H   0  0  0  0  0  0  0  0  0  0  0  0
    0.0000    0.0000    0.0000 H   0  0  0  0  0  0  0  0  0  0  0  0
    0.0000    0.0000    0.0000 H   0  0  0  0  0  0  0  0  0  0  0  0
    0.0000    0.0000    0.0000 H   0  0  0  0  0  0  0  0  0  0  0  0
    0.0000    0.0000    0.0000 H   0  0  0  0  0  0  0  0  0  0  0  0
    0.0000    0.0000    0.0000 H   0  0  0  0  0  0  0  0  0  0  0  0
    0.0000    0.0000    0.0000 H   0  0  0  0  0  0  0  0  0  0  0  0
    0.0000    0.0000    0.0000 H   0  0  0  0  0  0  0  0  0  0  0  0
    0.0000    0.0000    0.0000 H   0  0  0  0  0  0  0  0  0  0  0  0
    0.0000    0.0000    0.0000 H   0  0  0  0  0  0  0  0  0  0  0  0
    0.0000    0.0000    0.0000 H   0  0  0  0  0  0  0  0  0  0  0  0
    0.0000    0.0000    0.0000 H   0  0  0  0  0  0  0  0  0  0  0  0
    0.0000    0.0000    0.0000 H   0  0  0  0  0  0  0  0  0  0  0  0
    0.0000    0.0000    0.0000 H   0  0  0  0  0  0  0  0  0  0  0  0
    0.0000    0.0000    0.0000 H   0  0  0  0  0  0  0  0  0  0  0  0
    0.0000    0.0000    0.0000 H   0  0  0  0  0  0  0  0  0  0  0  0
    0.0000    0.0000    0.0000 H   0  0  0  0  0  0  0  0  0  0  0  0
    0.0000    0.0000    0.0000 H   0  0  0  0  0  0  0  0  0  0  0  0
  1  2  2  0
  2  3  1  0
  3  4  2  0
  4  5  1  0
  5  6  2  0
  1  6  1  0
  4  7  1  0
  7  8  1  0
  8  9  1  0
  9 10  1  0
  9 11  2  0
 10 12  1  0
 12 13  2  0
 13 14  1  0
 14 15  2  0
 15 16  1  0
 10 16  2  0
 14 17  1  0
 12 18  1  0
 18 19  1  0
 19 20  1  0
 17 21  1  0
 17 22  1  0
 22 23  1  0
 23 24  1  0
 21 24  1  0
 20 25  2  0
 25 26  1  0
 26 27  2  0
 27 28  1  0
 28 29  2  0
 20 29  1  0
 27 30  1  0
 30 31  1  0
 26 32  1  0
 22 33  1  6
 33 34  1  0
  1 35  1  0
  2 36  1  0
  6 37  1  0
  7 38  1  0
  7 39  1  0
  8 40  1  0
 16 41  1  0
 18 42  1  0
 19 43  1  0
 19 44  1  0
 21 45  1  0
 21 46  1  0
 22 47  1  0
 23 48  1  0
 23 49  1  0
 24 50  1  0
 24 51  1  0
 25 52  1  0
 28 53  1  0
 29 54  1  0
 31 55  1  0
 31 56  1  0
 31 57  1  0
 33 58  1  0
 33 59  1  0
 34 60  1  0
M  END
>  <ALOGPS_LOGP>  (1) 
2.42

>  <ALOGPS_LOGS>  (1) 
-4.21

>  <ALOGPS_SOLUBILITY>  (1) 
2.97e-02 g/l

>  <DATABASE_ID>  (1) 
DB06237

>  <DATABASE_NAME>  (1) 
drugbank

>  <DRUGBANK_ID>  (1) 
DB06237

>  <DRUG_GROUPS>  (1) 
approved

>  <EXACT_MASS>  (1) 
483.17856544

>  <FORMULA>  (1) 
C23H26ClN7O3

>  <GENERIC_NAME>  (1) 
Avanafil

>  <INCHI_IDENTIFIER>  (1) 
InChI=1S/C23H26ClN7O3/c1-34-19-6-5-15(10-18(19)24)11-27-21-17(22(33)28-13-20-25-7-3-8-26-20)12-29-23(30-21)31-9-2-4-16(31)14-32/h3,5-8,10,12,16,32H,2,4,9,11,13-14H2,1H3,(H,28,33)(H,27,29,30)/t16-/m0/s1

>  <INCHI_KEY>  (1) 
WEAJZXNPAWBCOA-INIZCTEOSA-N

>  <JCHEM_ACCEPTOR_COUNT>  (1) 
9

>  <JCHEM_AVERAGE_POLARIZABILITY>  (1) 
50.87315299400589

>  <JCHEM_BIOAVAILABILITY>  (1) 
1

>  <JCHEM_DONOR_COUNT>  (1) 
3

>  <JCHEM_FORMAL_CHARGE>  (1) 
0

>  <JCHEM_GHOSE_FILTER>  (1) 
0

>  <JCHEM_IUPAC>  (1) 
4-{[(3-chloro-4-methoxyphenyl)methyl]amino}-2-[(2S)-2-(hydroxymethyl)pyrrolidin-1-yl]-N-(pyrimidin-2-ylmethyl)pyrimidine-5-carboxamide

>  <JCHEM_LOGP>  (1) 
2.7788129103333343

>  <JCHEM_MDDR_LIKE_RULE>  (1) 
1

>  <JCHEM_NUMBER_OF_RINGS>  (1) 
4

>  <JCHEM_PHYSIOLOGICAL_CHARGE>  (1) 
0

>  <JCHEM_PKA>  (1) 
15.095098012910114

>  <JCHEM_PKA_STRONGEST_ACIDIC>  (1) 
12.527916061280205

>  <JCHEM_PKA_STRONGEST_BASIC>  (1) 
5.537541479961757

>  <JCHEM_POLAR_SURFACE_AREA>  (1) 
125.39000000000001

>  <JCHEM_REFRACTIVITY>  (1) 
131.75099999999998

>  <JCHEM_ROTATABLE_BOND_COUNT>  (1) 
9

>  <JCHEM_RULE_OF_FIVE>  (1) 
1

>  <JCHEM_TRADITIONAL_IUPAC>  (1) 
avanafil

>  <JCHEM_VEBER_RULE>  (1) 
0

>  <MOLECULAR_WEIGHT>  (1) 
483.951

>  <PRODUCTS>  (1) 
Spedra; Stendra

>  <SMILES>  (1) 
COC1=C(Cl)C=C(CNC2=C(C=NC(=N2)N2CCC[C@H]2CO)C(=O)NCC2=NC=CC=N2)C=C1

$$$$
