
     RDKit          2D

 44 45  0  0  0  0  0  0  0  0999 V2000
    2.1552    1.3045    0.0000 C   0  0  0  0  0  0  0  0  0  0  0  0
    2.8697    0.8920    0.0000 C   0  0  0  0  0  0  0  0  0  0  0  0
    2.8697    0.0670    0.0000 C   0  0  0  0  0  0  0  0  0  0  0  0
    3.5842   -0.3455    0.0000 C   0  0  0  0  0  0  0  0  0  0  0  0
    3.5842   -1.1705    0.0000 C   0  0  0  0  0  0  0  0  0  0  0  0
    2.8697   -1.5830    0.0000 C   0  0  0  0  0  0  0  0  0  0  0  0
    2.1552   -1.1705    0.0000 C   0  0  0  0  0  0  0  0  0  0  0  0
    2.1552   -0.3455    0.0000 C   0  0  0  0  0  0  0  0  0  0  0  0
    2.8697   -2.4080    0.0000 O   0  0  0  0  0  0  0  0  0  0  0  0
    3.5842    1.3045    0.0000 C   0  0  0  0  0  0  0  0  0  0  0  0
    4.1145    1.9365    0.0000 C   0  0  0  0  0  0  0  0  0  0  0  0
    4.9269    1.7933    0.0000 C   0  0  0  0  0  0  0  0  0  0  0  0
    5.2091    1.0180    0.0000 C   0  0  0  0  0  0  0  0  0  0  0  0
    4.6788    0.3860    0.0000 C   0  0  0  0  0  0  0  0  0  0  0  0
    3.8663    0.5293    0.0000 C   0  0  0  0  0  0  0  0  0  0  0  0
    3.0539    1.9365    0.0000 O   0  0  0  0  0  0  0  0  0  0  0  0
    1.4407    0.8920    0.0000 N   0  0  0  0  0  0  0  0  0  0  0  0
    0.7263    1.3045    0.0000 C   0  0  0  0  0  0  0  0  0  0  0  0
    1.4407    0.0670    0.0000 C   0  0  0  0  0  0  0  0  0  0  0  0
    0.0000    0.0000    0.0000 H   0  0  0  0  0  0  0  0  0  0  0  0
    0.0000    0.0000    0.0000 H   0  0  0  0  0  0  0  0  0  0  0  0
    0.0000    0.0000    0.0000 H   0  0  0  0  0  0  0  0  0  0  0  0
    0.0000    0.0000    0.0000 H   0  0  0  0  0  0  0  0  0  0  0  0
    0.0000    0.0000    0.0000 H   0  0  0  0  0  0  0  0  0  0  0  0
    0.0000    0.0000    0.0000 H   0  0  0  0  0  0  0  0  0  0  0  0
    0.0000    0.0000    0.0000 H   0  0  0  0  0  0  0  0  0  0  0  0
    0.0000    0.0000    0.0000 H   0  0  0  0  0  0  0  0  0  0  0  0
    0.0000    0.0000    0.0000 H   0  0  0  0  0  0  0  0  0  0  0  0
    0.0000    0.0000    0.0000 H   0  0  0  0  0  0  0  0  0  0  0  0
    0.0000    0.0000    0.0000 H   0  0  0  0  0  0  0  0  0  0  0  0
    0.0000    0.0000    0.0000 H   0  0  0  0  0  0  0  0  0  0  0  0
    0.0000    0.0000    0.0000 H   0  0  0  0  0  0  0  0  0  0  0  0
    0.0000    0.0000    0.0000 H   0  0  0  0  0  0  0  0  0  0  0  0
    0.0000    0.0000    0.0000 H   0  0  0  0  0  0  0  0  0  0  0  0
    0.0000    0.0000    0.0000 H   0  0  0  0  0  0  0  0  0  0  0  0
    0.0000    0.0000    0.0000 H   0  0  0  0  0  0  0  0  0  0  0  0
    0.0000    0.0000    0.0000 H   0  0  0  0  0  0  0  0  0  0  0  0
    0.0000    0.0000    0.0000 H   0  0  0  0  0  0  0  0  0  0  0  0
    0.0000    0.0000    0.0000 H   0  0  0  0  0  0  0  0  0  0  0  0
    0.0000    0.0000    0.0000 H   0  0  0  0  0  0  0  0  0  0  0  0
    0.0000    0.0000    0.0000 H   0  0  0  0  0  0  0  0  0  0  0  0
    0.0000    0.0000    0.0000 H   0  0  0  0  0  0  0  0  0  0  0  0
    0.0000    0.0000    0.0000 H   0  0  0  0  0  0  0  0  0  0  0  0
    0.0000    0.0000    0.0000 H   0  0  0  0  0  0  0  0  0  0  0  0
  1  2  1  0
  2  3  1  0
  3  4  2  0
  4  5  1  0
  5  6  2  0
  6  7  1  0
  7  8  2  0
  3  8  1  0
  6  9  1  0
  2 10  1  0
 10 11  1  0
 11 12  1  0
 12 13  1  0
 13 14  1  0
 14 15  1  0
 10 15  1  0
 10 16  1  0
  1 17  1  0
 17 18  1  0
 17 19  1  0
  1 20  1  0
  1 21  1  0
  2 22  1  0
  4 23  1  0
  5 24  1  0
  7 25  1  0
  8 26  1  0
  9 27  1  0
 11 28  1  0
 11 29  1  0
 12 30  1  0
 12 31  1  0
 13 32  1  0
 13 33  1  0
 14 34  1  0
 14 35  1  0
 15 36  1  0
 15 37  1  0
 16 38  1  0
 18 39  1  0
 18 40  1  0
 18 41  1  0
 19 42  1  0
 19 43  1  0
 19 44  1  0
M  END
>  <ALOGPS_LOGP>  (1) 
2.60

>  <ALOGPS_LOGS>  (1) 
-2.27

>  <ALOGPS_SOLUBILITY>  (1) 
1.40e+00 g/l

>  <DATABASE_ID>  (1) 
DB06700

>  <DATABASE_NAME>  (1) 
drugbank

>  <DRUGBANK_ID>  (1) 
DB06700

>  <DRUG_GROUPS>  (1) 
approved

>  <EXACT_MASS>  (1) 
263.188529049

>  <FORMULA>  (1) 
C16H25NO2

>  <GENERIC_NAME>  (1) 
Desvenlafaxine

>  <INCHI_IDENTIFIER>  (1) 
InChI=1S/C16H25NO2/c1-17(2)12-15(13-6-8-14(18)9-7-13)16(19)10-4-3-5-11-16/h6-9,15,18-19H,3-5,10-12H2,1-2H3

>  <INCHI_KEY>  (1) 
KYYIDSXMWOZKMP-UHFFFAOYSA-N

>  <JCHEM_ACCEPTOR_COUNT>  (1) 
3

>  <JCHEM_AVERAGE_POLARIZABILITY>  (1) 
30.29245125442269

>  <JCHEM_BIOAVAILABILITY>  (1) 
1

>  <JCHEM_DONOR_COUNT>  (1) 
2

>  <JCHEM_FORMAL_CHARGE>  (1) 
0

>  <JCHEM_GHOSE_FILTER>  (1) 
1

>  <JCHEM_IUPAC>  (1) 
4-[2-(dimethylamino)-1-(1-hydroxycyclohexyl)ethyl]phenol

>  <JCHEM_LOGP>  (1) 
2.293426606330164

>  <JCHEM_MDDR_LIKE_RULE>  (1) 
0

>  <JCHEM_NUMBER_OF_RINGS>  (1) 
2

>  <JCHEM_PHYSIOLOGICAL_CHARGE>  (1) 
1

>  <JCHEM_PKA>  (1) 
14.456634663426502

>  <JCHEM_PKA_STRONGEST_ACIDIC>  (1) 
10.111714219159039

>  <JCHEM_PKA_STRONGEST_BASIC>  (1) 
8.871147401604278

>  <JCHEM_POLAR_SURFACE_AREA>  (1) 
43.7

>  <JCHEM_REFRACTIVITY>  (1) 
78.5419

>  <JCHEM_ROTATABLE_BOND_COUNT>  (1) 
4

>  <JCHEM_RULE_OF_FIVE>  (1) 
1

>  <JCHEM_TRADITIONAL_IUPAC>  (1) 
desvenlafaxine

>  <JCHEM_VEBER_RULE>  (1) 
0

>  <MOLECULAR_WEIGHT>  (1) 
263.3752

>  <PRODUCTS>  (1) 
Apo-desvenlafaxine; Desvenlafaxine; Desvenlafaxine Extended-release; Desvenlafaxine Succinate; Gd-desvenlafaxine; Khedezla Extended-release; Pristiq; Pristiq Extended Release; Pristiq Extended-Release; Pristiq Extended-Release Extended-Release

>  <SALTS>  (1) 
Desvenlafaxine fumarate; Desvenlafaxine fumarate monohydrate; Desvenlafaxine succinate

>  <SMILES>  (1) 
CN(C)CC(C1=CC=C(O)C=C1)C1(O)CCCCC1

>  <SYNONYMS>  (1) 
O-desmethylvenlafaxine; ODV

$$$$
