
     RDKit          2D

 42 45  0  0  0  0  0  0  0  0999 V2000
    3.5723   -4.1235    0.0000 C   0  0  0  0  0  0  0  0  0  0  0  0
    5.8459    0.0465    0.0000 C   0  0  0  0  0  0  0  0  0  0  0  0
    5.6713   -0.7598    0.0000 C   0  0  0  0  0  0  0  0  0  0  0  0
    5.2349    0.6008    0.0000 C   0  0  0  0  0  0  0  0  0  0  0  0
    4.8857   -1.0118    0.0000 C   0  0  0  0  0  0  0  0  0  0  0  0
    3.9277    0.9881    0.0000 C   0  0  0  0  0  0  0  0  0  0  0  0
    3.1028    0.9789    0.0000 C   0  0  0  0  0  0  0  0  0  0  0  0
    2.8349   -2.0691    0.0000 C   0  0  0  0  0  0  0  0  0  0  0  0
    4.2637   -2.0531    0.0000 C   0  0  0  0  0  0  0  0  0  0  0  0
    2.0847   -0.9051    0.0000 C   0  0  0  0  0  0  0  0  0  0  0  0
    2.8441   -2.8941    0.0000 C   0  0  0  0  0  0  0  0  0  0  0  0
    4.2729   -2.8781    0.0000 C   0  0  0  0  0  0  0  0  0  0  0  0
    1.4574   -0.3693    0.0000 C   0  0  0  0  0  0  0  0  0  0  0  0
    4.4493    0.3489    0.0000 C   0  0  0  0  0  0  0  0  0  0  0  0
    3.5447   -1.6487    0.0000 C   0  0  0  0  0  0  0  0  0  0  0  0
    4.2747   -0.4575    0.0000 C   0  0  0  0  0  0  0  0  0  0  0  0
    2.7882   -0.4741    0.0000 C   0  0  0  0  0  0  0  0  0  0  0  0
    2.5956    0.3281    0.0000 C   0  0  0  0  0  0  0  0  0  0  0  0
    3.5354   -0.8237    0.0000 C   0  0  0  0  0  0  0  0  0  0  0  0
    3.5631   -3.2985    0.0000 N   0  0  0  0  0  0  0  0  0  0  0  0
    1.7732    0.3929    0.0000 S   0  0  0  0  0  0  0  0  0  0  0  0
    0.0000    0.0000    0.0000 H   0  0  0  0  0  0  0  0  0  0  0  0
    0.0000    0.0000    0.0000 H   0  0  0  0  0  0  0  0  0  0  0  0
    0.0000    0.0000    0.0000 H   0  0  0  0  0  0  0  0  0  0  0  0
    0.0000    0.0000    0.0000 H   0  0  0  0  0  0  0  0  0  0  0  0
    0.0000    0.0000    0.0000 H   0  0  0  0  0  0  0  0  0  0  0  0
    0.0000    0.0000    0.0000 H   0  0  0  0  0  0  0  0  0  0  0  0
    0.0000    0.0000    0.0000 H   0  0  0  0  0  0  0  0  0  0  0  0
    0.0000    0.0000    0.0000 H   0  0  0  0  0  0  0  0  0  0  0  0
    0.0000    0.0000    0.0000 H   0  0  0  0  0  0  0  0  0  0  0  0
    0.0000    0.0000    0.0000 H   0  0  0  0  0  0  0  0  0  0  0  0
    0.0000    0.0000    0.0000 H   0  0  0  0  0  0  0  0  0  0  0  0
    0.0000    0.0000    0.0000 H   0  0  0  0  0  0  0  0  0  0  0  0
    0.0000    0.0000    0.0000 H   0  0  0  0  0  0  0  0  0  0  0  0
    0.0000    0.0000    0.0000 H   0  0  0  0  0  0  0  0  0  0  0  0
    0.0000    0.0000    0.0000 H   0  0  0  0  0  0  0  0  0  0  0  0
    0.0000    0.0000    0.0000 H   0  0  0  0  0  0  0  0  0  0  0  0
    0.0000    0.0000    0.0000 H   0  0  0  0  0  0  0  0  0  0  0  0
    0.0000    0.0000    0.0000 H   0  0  0  0  0  0  0  0  0  0  0  0
    0.0000    0.0000    0.0000 H   0  0  0  0  0  0  0  0  0  0  0  0
    0.0000    0.0000    0.0000 H   0  0  0  0  0  0  0  0  0  0  0  0
    0.0000    0.0000    0.0000 H   0  0  0  0  0  0  0  0  0  0  0  0
  3  2  2  0
  4  2  1  0
  5  3  1  0
  7  6  1  0
 11  8  1  0
 12  9  1  0
 13 10  2  0
 14  4  2  0
 14  6  1  0
 15  8  1  0
 15  9  1  0
 16  5  2  0
 16 14  1  0
 17 10  1  0
 18  7  1  0
 18 17  2  0
 19 15  2  3
 19 16  1  0
 19 17  1  0
 20  1  1  0
 20 11  1  0
 20 12  1  0
 21 13  1  0
 21 18  1  0
  1 22  1  0
  1 23  1  0
  1 24  1  0
  2 25  1  0
  3 26  1  0
  4 27  1  0
  5 28  1  0
  6 29  1  0
  6 30  1  0
  7 31  1  0
  7 32  1  0
  8 33  1  0
  8 34  1  0
  9 35  1  0
  9 36  1  0
 10 37  1  0
 11 38  1  0
 11 39  1  0
 12 40  1  0
 12 41  1  0
 13 42  1  0
M  END
>  <ALOGPS_LOGP>  (1) 
4.70

>  <ALOGPS_LOGS>  (1) 
-4.62

>  <ALOGPS_SOLUBILITY>  (1) 
7.06e-03 g/l

>  <DATABASE_ID>  (1) 
DB06153

>  <DATABASE_NAME>  (1) 
drugbank

>  <DRUGBANK_ID>  (1) 
DB06153

>  <DRUG_GROUPS>  (1) 
approved

>  <EXACT_MASS>  (1) 
295.139470854

>  <FORMULA>  (1) 
C19H21NS

>  <GENERIC_NAME>  (1) 
Pizotifen

>  <INCHI_IDENTIFIER>  (1) 
InChI=1S/C19H21NS/c1-20-11-8-15(9-12-20)19-16-5-3-2-4-14(16)6-7-18-17(19)10-13-21-18/h2-5,10,13H,6-9,11-12H2,1H3

>  <INCHI_KEY>  (1) 
FIADGNVRKBPQEU-UHFFFAOYSA-N

>  <JCHEM_ACCEPTOR_COUNT>  (1) 
1

>  <JCHEM_ATOM_COUNT>  (1) 
42

>  <JCHEM_AVERAGE_POLARIZABILITY>  (1) 
34.3560719512461

>  <JCHEM_BIOAVAILABILITY>  (1) 
1

>  <JCHEM_DONOR_COUNT>  (1) 
0

>  <JCHEM_FORMAL_CHARGE>  (1) 
0

>  <JCHEM_GHOSE_FILTER>  (1) 
1

>  <JCHEM_IUPAC>  (1) 
1-methyl-4-{6-thiatricyclo[8.4.0.0³,⁷]tetradeca-1(14),3(7),4,10,12-pentaen-2-ylidene}piperidine

>  <JCHEM_LOGP>  (1) 
4.492244676666665

>  <JCHEM_MDDR_LIKE_RULE>  (1) 
0

>  <JCHEM_NUMBER_OF_RINGS>  (1) 
4

>  <JCHEM_PHYSIOLOGICAL_CHARGE>  (1) 
1

>  <JCHEM_PKA_STRONGEST_BASIC>  (1) 
7.975457780447228

>  <JCHEM_POLAR_SURFACE_AREA>  (1) 
3.24

>  <JCHEM_REFRACTIVITY>  (1) 
101.1015

>  <JCHEM_ROTATABLE_BOND_COUNT>  (1) 
0

>  <JCHEM_RULE_OF_FIVE>  (1) 
1

>  <JCHEM_TRADITIONAL_IUPAC>  (1) 
litec

>  <JCHEM_VEBER_RULE>  (1) 
1

>  <MOLECULAR_WEIGHT>  (1) 
295.44

>  <PRODUCTS>  (1) 
Sandomigran; Sandomigran DS

>  <SMILES>  (1) 
CN1CCC(CC1)=C1C2=C(CCC3=CC=CC=C13)SC=C2

>  <SYNONYMS>  (1) 
Pizotyline

$$$$
