
     RDKit          2D

102101  0  0  0  0  0  0  0  0999 V2000
  -15.0414    7.8592    0.0000 C   0  0  0  0  0  0  0  0  0  0  0  0
  -14.3270    8.2717    0.0000 C   0  0  0  0  0  0  0  0  0  0  0  0
  -13.6125    7.8592    0.0000 C   0  0  0  0  0  0  0  0  0  0  0  0
  -12.8980    8.2717    0.0000 C   0  0  0  0  0  0  0  0  0  0  0  0
  -12.1836    7.8592    0.0000 C   0  0  0  0  0  0  0  0  0  0  0  0
  -11.4691    8.2717    0.0000 C   0  0  0  0  0  0  0  0  0  0  0  0
  -10.7546    7.8592    0.0000 C   0  0  0  0  0  0  0  0  0  0  0  0
  -10.0401    8.2717    0.0000 C   0  0  0  0  0  0  0  0  0  0  0  0
   -9.3257    7.8592    0.0000 C   0  0  0  0  0  0  0  0  0  0  0  0
   -8.6112    8.2717    0.0000 C   0  0  0  0  0  0  0  0  0  0  0  0
   -7.8967    7.8592    0.0000 C   0  0  0  0  0  0  0  0  0  0  0  0
   12.1085    7.8592    0.0000 C   0  0  0  0  0  0  0  0  0  0  0  0
   -7.1823    8.2717    0.0000 C   0  0  0  0  0  0  0  0  0  0  0  0
   11.3940    8.2717    0.0000 C   0  0  0  0  0  0  0  0  0  0  0  0
   -5.7533    8.2717    0.0000 C   0  0  0  0  0  0  0  0  0  0  0  0
    9.9650    8.2717    0.0000 C   0  0  0  0  0  0  0  0  0  0  0  0
   -5.0388    7.8592    0.0000 C   0  0  0  0  0  0  0  0  0  0  0  0
    9.2506    7.8592    0.0000 C   0  0  0  0  0  0  0  0  0  0  0  0
   -3.6099    7.8592    0.0000 C   0  0  0  0  0  0  0  0  0  0  0  0
    7.8216    7.8592    0.0000 C   0  0  0  0  0  0  0  0  0  0  0  0
   -2.8954    8.2717    0.0000 C   0  0  0  0  0  0  0  0  0  0  0  0
    7.1072    8.2717    0.0000 C   0  0  0  0  0  0  0  0  0  0  0  0
   -1.4665    8.2717    0.0000 C   0  0  0  0  0  0  0  0  0  0  0  0
    5.6782    8.2717    0.0000 C   0  0  0  0  0  0  0  0  0  0  0  0
   -0.7520    7.8592    0.0000 C   0  0  0  0  0  0  0  0  0  0  0  0
    4.9637    7.8592    0.0000 C   0  0  0  0  0  0  0  0  0  0  0  0
    0.6769    7.8592    0.0000 C   0  0  0  0  0  0  0  0  0  0  0  0
    3.5348    7.8592    0.0000 C   0  0  0  0  0  0  0  0  0  0  0  0
    1.3914    8.2717    0.0000 C   0  0  0  0  0  0  0  0  0  0  0  0
    2.8203    8.2717    0.0000 C   0  0  0  0  0  0  0  0  0  0  0  0
   12.8229    8.2717    0.0000 O   0  0  0  0  0  0  0  0  0  0  0  0
   -6.4678    7.8592    0.0000 O   0  0  0  0  0  0  0  0  0  0  0  0
   10.6795    7.8592    0.0000 O   0  0  0  0  0  0  0  0  0  0  0  0
   -4.3244    8.2717    0.0000 O   0  0  0  0  0  0  0  0  0  0  0  0
    8.5361    8.2717    0.0000 O   0  0  0  0  0  0  0  0  0  0  0  0
   -2.1810    7.8592    0.0000 O   0  0  0  0  0  0  0  0  0  0  0  0
    6.3927    7.8592    0.0000 O   0  0  0  0  0  0  0  0  0  0  0  0
   -0.0376    8.2717    0.0000 O   0  0  0  0  0  0  0  0  0  0  0  0
    4.2493    8.2717    0.0000 O   0  0  0  0  0  0  0  0  0  0  0  0
    2.1059    7.8592    0.0000 O   0  0  0  0  0  0  0  0  0  0  0  0
    0.0000    0.0000    0.0000 H   0  0  0  0  0  0  0  0  0  0  0  0
    0.0000    0.0000    0.0000 H   0  0  0  0  0  0  0  0  0  0  0  0
    0.0000    0.0000    0.0000 H   0  0  0  0  0  0  0  0  0  0  0  0
    0.0000    0.0000    0.0000 H   0  0  0  0  0  0  0  0  0  0  0  0
    0.0000    0.0000    0.0000 H   0  0  0  0  0  0  0  0  0  0  0  0
    0.0000    0.0000    0.0000 H   0  0  0  0  0  0  0  0  0  0  0  0
    0.0000    0.0000    0.0000 H   0  0  0  0  0  0  0  0  0  0  0  0
    0.0000    0.0000    0.0000 H   0  0  0  0  0  0  0  0  0  0  0  0
    0.0000    0.0000    0.0000 H   0  0  0  0  0  0  0  0  0  0  0  0
    0.0000    0.0000    0.0000 H   0  0  0  0  0  0  0  0  0  0  0  0
    0.0000    0.0000    0.0000 H   0  0  0  0  0  0  0  0  0  0  0  0
    0.0000    0.0000    0.0000 H   0  0  0  0  0  0  0  0  0  0  0  0
    0.0000    0.0000    0.0000 H   0  0  0  0  0  0  0  0  0  0  0  0
    0.0000    0.0000    0.0000 H   0  0  0  0  0  0  0  0  0  0  0  0
    0.0000    0.0000    0.0000 H   0  0  0  0  0  0  0  0  0  0  0  0
    0.0000    0.0000    0.0000 H   0  0  0  0  0  0  0  0  0  0  0  0
    0.0000    0.0000    0.0000 H   0  0  0  0  0  0  0  0  0  0  0  0
    0.0000    0.0000    0.0000 H   0  0  0  0  0  0  0  0  0  0  0  0
    0.0000    0.0000    0.0000 H   0  0  0  0  0  0  0  0  0  0  0  0
    0.0000    0.0000    0.0000 H   0  0  0  0  0  0  0  0  0  0  0  0
    0.0000    0.0000    0.0000 H   0  0  0  0  0  0  0  0  0  0  0  0
    0.0000    0.0000    0.0000 H   0  0  0  0  0  0  0  0  0  0  0  0
    0.0000    0.0000    0.0000 H   0  0  0  0  0  0  0  0  0  0  0  0
    0.0000    0.0000    0.0000 H   0  0  0  0  0  0  0  0  0  0  0  0
    0.0000    0.0000    0.0000 H   0  0  0  0  0  0  0  0  0  0  0  0
    0.0000    0.0000    0.0000 H   0  0  0  0  0  0  0  0  0  0  0  0
    0.0000    0.0000    0.0000 H   0  0  0  0  0  0  0  0  0  0  0  0
    0.0000    0.0000    0.0000 H   0  0  0  0  0  0  0  0  0  0  0  0
    0.0000    0.0000    0.0000 H   0  0  0  0  0  0  0  0  0  0  0  0
    0.0000    0.0000    0.0000 H   0  0  0  0  0  0  0  0  0  0  0  0
    0.0000    0.0000    0.0000 H   0  0  0  0  0  0  0  0  0  0  0  0
    0.0000    0.0000    0.0000 H   0  0  0  0  0  0  0  0  0  0  0  0
    0.0000    0.0000    0.0000 H   0  0  0  0  0  0  0  0  0  0  0  0
    0.0000    0.0000    0.0000 H   0  0  0  0  0  0  0  0  0  0  0  0
    0.0000    0.0000    0.0000 H   0  0  0  0  0  0  0  0  0  0  0  0
    0.0000    0.0000    0.0000 H   0  0  0  0  0  0  0  0  0  0  0  0
    0.0000    0.0000    0.0000 H   0  0  0  0  0  0  0  0  0  0  0  0
    0.0000    0.0000    0.0000 H   0  0  0  0  0  0  0  0  0  0  0  0
    0.0000    0.0000    0.0000 H   0  0  0  0  0  0  0  0  0  0  0  0
    0.0000    0.0000    0.0000 H   0  0  0  0  0  0  0  0  0  0  0  0
    0.0000    0.0000    0.0000 H   0  0  0  0  0  0  0  0  0  0  0  0
    0.0000    0.0000    0.0000 H   0  0  0  0  0  0  0  0  0  0  0  0
    0.0000    0.0000    0.0000 H   0  0  0  0  0  0  0  0  0  0  0  0
    0.0000    0.0000    0.0000 H   0  0  0  0  0  0  0  0  0  0  0  0
    0.0000    0.0000    0.0000 H   0  0  0  0  0  0  0  0  0  0  0  0
    0.0000    0.0000    0.0000 H   0  0  0  0  0  0  0  0  0  0  0  0
    0.0000    0.0000    0.0000 H   0  0  0  0  0  0  0  0  0  0  0  0
    0.0000    0.0000    0.0000 H   0  0  0  0  0  0  0  0  0  0  0  0
    0.0000    0.0000    0.0000 H   0  0  0  0  0  0  0  0  0  0  0  0
    0.0000    0.0000    0.0000 H   0  0  0  0  0  0  0  0  0  0  0  0
    0.0000    0.0000    0.0000 H   0  0  0  0  0  0  0  0  0  0  0  0
    0.0000    0.0000    0.0000 H   0  0  0  0  0  0  0  0  0  0  0  0
    0.0000    0.0000    0.0000 H   0  0  0  0  0  0  0  0  0  0  0  0
    0.0000    0.0000    0.0000 H   0  0  0  0  0  0  0  0  0  0  0  0
    0.0000    0.0000    0.0000 H   0  0  0  0  0  0  0  0  0  0  0  0
    0.0000    0.0000    0.0000 H   0  0  0  0  0  0  0  0  0  0  0  0
    0.0000    0.0000    0.0000 H   0  0  0  0  0  0  0  0  0  0  0  0
    0.0000    0.0000    0.0000 H   0  0  0  0  0  0  0  0  0  0  0  0
    0.0000    0.0000    0.0000 H   0  0  0  0  0  0  0  0  0  0  0  0
    0.0000    0.0000    0.0000 H   0  0  0  0  0  0  0  0  0  0  0  0
    0.0000    0.0000    0.0000 H   0  0  0  0  0  0  0  0  0  0  0  0
    0.0000    0.0000    0.0000 H   0  0  0  0  0  0  0  0  0  0  0  0
  2  1  1  0
  3  2  1  0
  4  3  1  0
  5  4  1  0
  6  5  1  0
  7  6  1  0
  8  7  1  0
  9  8  1  0
 10  9  1  0
 11 10  1  0
 13 11  1  0
 14 12  1  0
 17 15  1  0
 18 16  1  0
 21 19  1  0
 22 20  1  0
 25 23  1  0
 26 24  1  0
 29 27  1  0
 30 28  1  0
 31 12  1  0
 32 13  1  0
 32 15  1  0
 33 14  1  0
 33 16  1  0
 34 17  1  0
 34 19  1  0
 35 18  1  0
 35 20  1  0
 36 21  1  0
 36 23  1  0
 37 22  1  0
 37 24  1  0
 38 25  1  0
 38 27  1  0
 39 26  1  0
 39 28  1  0
 40 29  1  0
 40 30  1  0
  1 41  1  0
  1 42  1  0
  1 43  1  0
  2 44  1  0
  2 45  1  0
  3 46  1  0
  3 47  1  0
  4 48  1  0
  4 49  1  0
  5 50  1  0
  5 51  1  0
  6 52  1  0
  6 53  1  0
  7 54  1  0
  7 55  1  0
  8 56  1  0
  8 57  1  0
  9 58  1  0
  9 59  1  0
 10 60  1  0
 10 61  1  0
 11 62  1  0
 11 63  1  0
 12 64  1  0
 12 65  1  0
 13 66  1  0
 13 67  1  0
 14 68  1  0
 14 69  1  0
 15 70  1  0
 15 71  1  0
 16 72  1  0
 16 73  1  0
 17 74  1  0
 17 75  1  0
 18 76  1  0
 18 77  1  0
 19 78  1  0
 19 79  1  0
 20 80  1  0
 20 81  1  0
 21 82  1  0
 21 83  1  0
 22 84  1  0
 22 85  1  0
 23 86  1  0
 23 87  1  0
 24 88  1  0
 24 89  1  0
 25 90  1  0
 25 91  1  0
 26 92  1  0
 26 93  1  0
 27 94  1  0
 27 95  1  0
 28 96  1  0
 28 97  1  0
 29 98  1  0
 29 99  1  0
 30100  1  0
 30101  1  0
 31102  1  0
M  END
>  <ALOGPS_LOGP>  (1) 
3.15

>  <ALOGPS_LOGS>  (1) 
-6.16

>  <ALOGPS_SOLUBILITY>  (1) 
4.03e-04 g/l

>  <DATABASE_ID>  (1) 
DB06811

>  <DATABASE_NAME>  (1) 
drugbank

>  <DRUGBANK_ID>  (1) 
DB06811

>  <DRUG_GROUPS>  (1) 
approved

>  <EXACT_MASS>  (1) 
582.434298204

>  <FORMULA>  (1) 
C30H62O10

>  <GENERIC_NAME>  (1) 
Polidocanol

>  <INCHI_IDENTIFIER>  (1) 
InChI=1S/C30H62O10/c1-2-3-4-5-6-7-8-9-10-11-13-32-15-17-34-19-21-36-23-25-38-27-29-40-30-28-39-26-24-37-22-20-35-18-16-33-14-12-31/h31H,2-30H2,1H3

>  <INCHI_KEY>  (1) 
ONJQDTZCDSESIW-UHFFFAOYSA-N

>  <JCHEM_ACCEPTOR_COUNT>  (1) 
10

>  <JCHEM_AVERAGE_POLARIZABILITY>  (1) 
74.49120056635908

>  <JCHEM_BIOAVAILABILITY>  (1) 
0

>  <JCHEM_DONOR_COUNT>  (1) 
1

>  <JCHEM_FORMAL_CHARGE>  (1) 
0

>  <JCHEM_GHOSE_FILTER>  (1) 
0

>  <JCHEM_IUPAC>  (1) 
3,6,9,12,15,18,21,24,27-nonaoxanonatriacontan-1-ol

>  <JCHEM_LOGP>  (1) 
3.9390916910000024

>  <JCHEM_MDDR_LIKE_RULE>  (1) 
0

>  <JCHEM_NUMBER_OF_RINGS>  (1) 
0

>  <JCHEM_PHYSIOLOGICAL_CHARGE>  (1) 
0

>  <JCHEM_PKA_STRONGEST_ACIDIC>  (1) 
15.121155523152112

>  <JCHEM_PKA_STRONGEST_BASIC>  (1) 
-2.7458065741732653

>  <JCHEM_POLAR_SURFACE_AREA>  (1) 
103.30000000000003

>  <JCHEM_REFRACTIVITY>  (1) 
158.3344

>  <JCHEM_ROTATABLE_BOND_COUNT>  (1) 
37

>  <JCHEM_RULE_OF_FIVE>  (1) 
0

>  <JCHEM_TRADITIONAL_IUPAC>  (1) 
polidocanol

>  <JCHEM_VEBER_RULE>  (1) 
0

>  <MOLECULAR_WEIGHT>  (1) 
582.8073

>  <PRODUCTS>  (1) 
Asclera; Varithena; Varithena TM

>  <SMILES>  (1) 
CCCCCCCCCCCCOCCOCCOCCOCCOCCOCCOCCOCCOCCO

>  <SYNONYMS>  (1) 
Aethoxy-sklerol; Laureth 9; Laureth-9; Macrogol 9 lauryl ether; Nonaethylene glycol monododecyl ether; Nonaethylene glycol monolauryl ether; PEG-9 lauryl ether; Polydocanol; Polyethylene glycol 450 lauryl ether; Polyoxyl 9 lauryl ether

$$$$
