
     RDKit          2D

  3  2  0  0  0  0  0  0  0  0999 V2000
    1.6500   -0.4125    0.0000 O   0  0  0  0  0  0  0  0  0  0  0  0
    2.3644    0.0000    0.0000 N   0  0  0  0  0  0  0  0  0  0  0  0
    3.0789    0.4125    0.0000 N   0  0  0  0  0  0  0  0  0  0  0  0
  1  2  1  0
  2  3  3  0
M  CHG  2   1  -1   2   1
M  END
>  <DATABASE_ID>  (1) 
DB06690

>  <DATABASE_NAME>  (1) 
drugbank

>  <DRUGBANK_ID>  (1) 
DB06690

>  <DRUG_GROUPS>  (1) 
approved; vet_approved

>  <EXACT_MASS>  (1) 
44.001062632

>  <FORMULA>  (1) 
N2O

>  <GENERIC_NAME>  (1) 
Nitrous oxide

>  <INCHI_IDENTIFIER>  (1) 
InChI=1S/N2O/c1-2-3

>  <INCHI_KEY>  (1) 
GQPLMRYTRLFLPF-UHFFFAOYSA-N

>  <JCHEM_ACCEPTOR_COUNT>  (1) 
3

>  <JCHEM_AVERAGE_POLARIZABILITY>  (1) 
2.540463164448618

>  <JCHEM_BIOAVAILABILITY>  (1) 
1

>  <JCHEM_DONOR_COUNT>  (1) 
0

>  <JCHEM_FORMAL_CHARGE>  (1) 
0

>  <JCHEM_GHOSE_FILTER>  (1) 
0

>  <JCHEM_IUPAC>  (1) 
diazooxidane

>  <JCHEM_LOGP>  (1) 
-0.021399999999999975

>  <JCHEM_MDDR_LIKE_RULE>  (1) 
0

>  <JCHEM_NUMBER_OF_RINGS>  (1) 
0

>  <JCHEM_PHYSIOLOGICAL_CHARGE>  (1) 
0

>  <JCHEM_PKA_STRONGEST_BASIC>  (1) 
-6.840191953533718

>  <JCHEM_POLAR_SURFACE_AREA>  (1) 
54.46

>  <JCHEM_REFRACTIVITY>  (1) 
27.6727

>  <JCHEM_ROTATABLE_BOND_COUNT>  (1) 
0

>  <JCHEM_RULE_OF_FIVE>  (1) 
1

>  <JCHEM_TRADITIONAL_IUPAC>  (1) 
nitrous oxide

>  <JCHEM_VEBER_RULE>  (1) 
0

>  <MOLECULAR_WEIGHT>  (1) 
44.0128

>  <PRODUCTS>  (1) 
Alnox Gas; Entonox; Liqui-med Analgesic Gas; Nitrous Oxide; Nitrous Oxide 100%; Nitrous Oxide 99%; Nitrous Oxide In Oxygen; Nitrous Oxide Sedara; Nitrous Oxide USP; Nitrous Oxide USP 99%; Nitrous Oxide, USP

>  <SMILES>  (1) 
[O-][N+]#N

>  <SYNONYMS>  (1) 
Nitrious oxide

$$$$
