
     RDKit          2D

 49 51  0  0  0  0  0  0  0  0999 V2000
   -2.8271    1.3435    0.0000 C   0  0  0  0  0  0  0  0  0  0  0  0
   -1.6910    4.7042    0.0000 C   0  0  0  0  0  0  0  0  0  0  0  0
   -2.4980    4.8757    0.0000 C   0  0  0  0  0  0  0  0  0  0  0  0
   -1.4361    3.9196    0.0000 C   0  0  0  0  0  0  0  0  0  0  0  0
   -3.0500    4.2626    0.0000 C   0  0  0  0  0  0  0  0  0  0  0  0
    3.0993    2.0735    0.0000 C   0  0  0  0  0  0  0  0  0  0  0  0
    2.3848    0.8360    0.0000 C   0  0  0  0  0  0  0  0  0  0  0  0
    2.3848    2.4860    0.0000 C   0  0  0  0  0  0  0  0  0  0  0  0
    1.6704    1.2485    0.0000 C   0  0  0  0  0  0  0  0  0  0  0  0
    3.8138    0.8360    0.0000 C   0  0  0  0  0  0  0  0  0  0  0  0
    3.8138    0.0110    0.0000 C   0  0  0  0  0  0  0  0  0  0  0  0
   -1.1874    2.0735    0.0000 C   0  0  0  0  0  0  0  0  0  0  0  0
   -0.4730    2.4860    0.0000 C   0  0  0  0  0  0  0  0  0  0  0  0
    0.9559    2.4860    0.0000 C   0  0  0  0  0  0  0  0  0  0  0  0
   -2.6556    2.1504    0.0000 C   0  0  0  0  0  0  0  0  0  0  0  0
    3.0993    1.2485    0.0000 C   0  0  0  0  0  0  0  0  0  0  0  0
    1.6704    2.0735    0.0000 C   0  0  0  0  0  0  0  0  0  0  0  0
   -1.9019    2.4860    0.0000 C   0  0  0  0  0  0  0  0  0  0  0  0
   -1.9881    3.3065    0.0000 C   0  0  0  0  0  0  0  0  0  0  0  0
   -2.7951    3.4780    0.0000 C   0  0  0  0  0  0  0  0  0  0  0  0
    4.5282   -0.4014    0.0000 C   0  0  0  0  0  0  0  0  0  0  0  0
    0.2414    2.0735    0.0000 N   0  0  0  0  0  0  0  0  0  0  0  0
   -3.2076    2.7635    0.0000 N   0  0  0  0  0  0  0  0  0  0  0  0
    4.5282   -1.2264    0.0000 N   0  0  0  0  0  0  0  0  0  0  0  0
    5.2427    0.0110    0.0000 O   0  0  0  0  0  0  0  0  0  0  0  0
    5.2427   -1.6389    0.0000 O   0  0  0  0  0  0  0  0  0  0  0  0
    0.0000    0.0000    0.0000 H   0  0  0  0  0  0  0  0  0  0  0  0
    0.0000    0.0000    0.0000 H   0  0  0  0  0  0  0  0  0  0  0  0
    0.0000    0.0000    0.0000 H   0  0  0  0  0  0  0  0  0  0  0  0
    0.0000    0.0000    0.0000 H   0  0  0  0  0  0  0  0  0  0  0  0
    0.0000    0.0000    0.0000 H   0  0  0  0  0  0  0  0  0  0  0  0
    0.0000    0.0000    0.0000 H   0  0  0  0  0  0  0  0  0  0  0  0
    0.0000    0.0000    0.0000 H   0  0  0  0  0  0  0  0  0  0  0  0
    0.0000    0.0000    0.0000 H   0  0  0  0  0  0  0  0  0  0  0  0
    0.0000    0.0000    0.0000 H   0  0  0  0  0  0  0  0  0  0  0  0
    0.0000    0.0000    0.0000 H   0  0  0  0  0  0  0  0  0  0  0  0
    0.0000    0.0000    0.0000 H   0  0  0  0  0  0  0  0  0  0  0  0
    0.0000    0.0000    0.0000 H   0  0  0  0  0  0  0  0  0  0  0  0
    0.0000    0.0000    0.0000 H   0  0  0  0  0  0  0  0  0  0  0  0
    0.0000    0.0000    0.0000 H   0  0  0  0  0  0  0  0  0  0  0  0
    0.0000    0.0000    0.0000 H   0  0  0  0  0  0  0  0  0  0  0  0
    0.0000    0.0000    0.0000 H   0  0  0  0  0  0  0  0  0  0  0  0
    0.0000    0.0000    0.0000 H   0  0  0  0  0  0  0  0  0  0  0  0
    0.0000    0.0000    0.0000 H   0  0  0  0  0  0  0  0  0  0  0  0
    0.0000    0.0000    0.0000 H   0  0  0  0  0  0  0  0  0  0  0  0
    0.0000    0.0000    0.0000 H   0  0  0  0  0  0  0  0  0  0  0  0
    0.0000    0.0000    0.0000 H   0  0  0  0  0  0  0  0  0  0  0  0
    0.0000    0.0000    0.0000 H   0  0  0  0  0  0  0  0  0  0  0  0
    0.0000    0.0000    0.0000 H   0  0  0  0  0  0  0  0  0  0  0  0
  3  2  2  0
  4  2  1  0
  5  3  1  0
  8  6  2  0
  9  7  1  0
 11 10  2  0
 13 12  1  0
 15  1  1  0
 16  6  1  0
 16  7  2  0
 16 10  1  0
 17  8  1  0
 17  9  2  0
 17 14  1  0
 18 12  1  0
 18 15  2  0
 19  4  2  0
 19 18  1  0
 20  5  2  0
 20 19  1  0
 21 11  1  0
 22 13  1  0
 22 14  1  0
 23 15  1  0
 23 20  1  0
 24 21  2  3
 25 21  1  0
 24 26  1  0
  1 27  1  0
  1 28  1  0
  1 29  1  0
  2 30  1  0
  3 31  1  0
  4 32  1  0
  5 33  1  0
  6 34  1  0
  7 35  1  0
  8 36  1  0
  9 37  1  0
 10 38  1  0
 11 39  1  0
 12 40  1  0
 12 41  1  0
 13 42  1  0
 13 43  1  0
 14 44  1  0
 14 45  1  0
 22 46  1  0
 23 47  1  0
 25 48  1  0
 26 49  1  0
M  END
>  <ALOGPS_LOGP>  (1) 
3.28

>  <ALOGPS_LOGS>  (1) 
-5.62

>  <ALOGPS_SOLUBILITY>  (1) 
8.34e-04 g/l

>  <DATABASE_ID>  (1) 
DB06603

>  <DATABASE_NAME>  (1) 
drugbank

>  <DRUGBANK_ID>  (1) 
DB06603

>  <DRUG_GROUPS>  (1) 
approved; investigational

>  <EXACT_MASS>  (1) 
349.179026993

>  <FORMULA>  (1) 
C21H23N3O2

>  <GENERIC_NAME>  (1) 
Panobinostat

>  <INCHI_IDENTIFIER>  (1) 
InChI=1S/C21H23N3O2/c1-15-18(19-4-2-3-5-20(19)23-15)12-13-22-14-17-8-6-16(7-9-17)10-11-21(25)24-26/h2-11,22-23,26H,12-14H2,1H3,(H,24,25)/b11-10+

>  <INCHI_KEY>  (1) 
FPOHNWQLNRZRFC-ZHACJKMWSA-N

>  <JCHEM_ACCEPTOR_COUNT>  (1) 
4

>  <JCHEM_ATOM_COUNT>  (1) 
49

>  <JCHEM_AVERAGE_POLARIZABILITY>  (1) 
40.53579666198274

>  <JCHEM_BIOAVAILABILITY>  (1) 
1

>  <JCHEM_DONOR_COUNT>  (1) 
4

>  <JCHEM_FORMAL_CHARGE>  (1) 
0

>  <JCHEM_GHOSE_FILTER>  (1) 
1

>  <JCHEM_IUPAC>  (1) 
N-hydroxy(2E)-3-[4-({[2-(2-methyl-1H-indol-3-yl)ethyl]amino}methyl)phenyl]prop-2-enimidic acid

>  <JCHEM_LOGP>  (1) 
1.5432746839644724

>  <JCHEM_MDDR_LIKE_RULE>  (1) 
1

>  <JCHEM_NUMBER_OF_RINGS>  (1) 
3

>  <JCHEM_PHYSIOLOGICAL_CHARGE>  (1) 
0

>  <JCHEM_PKA>  (1) 
13.910947077667206

>  <JCHEM_PKA_STRONGEST_ACIDIC>  (1) 
5.454883074104172

>  <JCHEM_PKA_STRONGEST_BASIC>  (1) 
10.009511182622978

>  <JCHEM_POLAR_SURFACE_AREA>  (1) 
80.64

>  <JCHEM_REFRACTIVITY>  (1) 
106.02019999999999

>  <JCHEM_ROTATABLE_BOND_COUNT>  (1) 
7

>  <JCHEM_RULE_OF_FIVE>  (1) 
1

>  <JCHEM_TRADITIONAL_IUPAC>  (1) 
N-hydroxy(2E)-3-[4-({[2-(2-methyl-1H-indol-3-yl)ethyl]amino}methyl)phenyl]prop-2-enimidic acid

>  <JCHEM_VEBER_RULE>  (1) 
0

>  <MOLECULAR_WEIGHT>  (1) 
349.434

>  <PRODUCTS>  (1) 
Farydak

>  <SALTS>  (1) 
Panobinostat hydrate; Panobinostat lactate

>  <SMILES>  (1) 
[H]\C(=C(\[H])C1=CC=C(CNCCC2=C(C)NC3=CC=CC=C23)C=C1)C(O)=NO

>  <SYNONYMS>  (1) 
(2E)-N-hydroxy-3-[4-({[2-(2-methyl-1H-indol-3-yl)ethyl]amino}methyl)phenyl]acrylamide; panobinostat

$$$$
