
     RDKit          2D

 36 36  0  0  0  0  0  0  0  0999 V2000
    7.6312    1.9447    0.0000 C   0  0  0  0  0  0  0  0  0  0  0  0
    6.9168    1.5322    0.0000 C   0  0  0  0  0  0  0  0  0  0  0  0
    6.9168    0.7071    0.0000 C   0  0  0  0  0  0  0  0  0  0  0  0
    7.6312    0.2946    0.0000 C   0  0  0  0  0  0  0  0  0  0  0  0
    8.3457    0.7071    0.0000 C   0  0  0  0  0  0  0  0  0  0  0  0
    8.3457    1.5322    0.0000 C   0  0  0  0  0  0  0  0  0  0  0  0
    6.2023    1.9447    0.0000 C   0  0  0  0  0  0  0  0  0  0  0  0
    5.4878    1.5322    0.0000 N   0  0  0  0  0  0  0  0  0  0  0  0
    4.7734    1.9447    0.0000 C   0  0  0  0  0  0  0  0  0  0  0  0
    4.7734    2.7697    0.0000 O   0  0  0  0  0  0  0  0  0  0  0  0
    4.0589    1.5322    0.0000 C   0  0  0  0  0  0  0  0  0  0  0  0
    4.0589    0.7072    0.0000 C   0  0  0  0  0  0  0  0  0  0  0  0
    4.7734    0.2947    0.0000 O   0  0  0  0  0  0  0  0  0  0  0  0
    4.7734   -0.5303    0.0000 C   0  0  0  0  0  0  0  0  0  0  0  0
    3.2620    1.7457    0.0000 N   0  0  0  0  0  0  0  0  0  0  0  0
    2.5475    1.3332    0.0000 C   0  0  0  0  0  0  0  0  0  0  0  0
    2.5475    0.5082    0.0000 O   0  0  0  0  0  0  0  0  0  0  0  0
    1.8331    1.7457    0.0000 C   0  0  0  0  0  0  0  0  0  0  0  0
    0.0000    0.0000    0.0000 H   0  0  0  0  0  0  0  0  0  0  0  0
    0.0000    0.0000    0.0000 H   0  0  0  0  0  0  0  0  0  0  0  0
    0.0000    0.0000    0.0000 H   0  0  0  0  0  0  0  0  0  0  0  0
    0.0000    0.0000    0.0000 H   0  0  0  0  0  0  0  0  0  0  0  0
    0.0000    0.0000    0.0000 H   0  0  0  0  0  0  0  0  0  0  0  0
    0.0000    0.0000    0.0000 H   0  0  0  0  0  0  0  0  0  0  0  0
    0.0000    0.0000    0.0000 H   0  0  0  0  0  0  0  0  0  0  0  0
    0.0000    0.0000    0.0000 H   0  0  0  0  0  0  0  0  0  0  0  0
    0.0000    0.0000    0.0000 H   0  0  0  0  0  0  0  0  0  0  0  0
    0.0000    0.0000    0.0000 H   0  0  0  0  0  0  0  0  0  0  0  0
    0.0000    0.0000    0.0000 H   0  0  0  0  0  0  0  0  0  0  0  0
    0.0000    0.0000    0.0000 H   0  0  0  0  0  0  0  0  0  0  0  0
    0.0000    0.0000    0.0000 H   0  0  0  0  0  0  0  0  0  0  0  0
    0.0000    0.0000    0.0000 H   0  0  0  0  0  0  0  0  0  0  0  0
    0.0000    0.0000    0.0000 H   0  0  0  0  0  0  0  0  0  0  0  0
    0.0000    0.0000    0.0000 H   0  0  0  0  0  0  0  0  0  0  0  0
    0.0000    0.0000    0.0000 H   0  0  0  0  0  0  0  0  0  0  0  0
    0.0000    0.0000    0.0000 H   0  0  0  0  0  0  0  0  0  0  0  0
  1  2  2  0
  2  3  1  0
  3  4  2  0
  4  5  1  0
  5  6  2  0
  1  6  1  0
  2  7  1  0
  7  8  1  0
  8  9  1  0
  9 10  2  0
 11  9  1  6
 11 12  1  0
 12 13  1  0
 13 14  1  0
 11 15  1  0
 15 16  1  0
 16 17  2  0
 16 18  1  0
  1 19  1  0
  3 20  1  0
  4 21  1  0
  5 22  1  0
  6 23  1  0
  7 24  1  0
  7 25  1  0
  8 26  1  0
 11 27  1  0
 12 28  1  0
 12 29  1  0
 14 30  1  0
 14 31  1  0
 14 32  1  0
 15 33  1  0
 18 34  1  0
 18 35  1  0
 18 36  1  0
M  END
>  <ALOGPS_LOGP>  (1) 
0.18

>  <ALOGPS_LOGS>  (1) 
-2.73

>  <ALOGPS_SOLUBILITY>  (1) 
4.65e-01 g/l

>  <DATABASE_ID>  (1) 
DB06218

>  <DATABASE_NAME>  (1) 
drugbank

>  <DRUGBANK_ID>  (1) 
DB06218

>  <DRUG_GROUPS>  (1) 
approved

>  <EXACT_MASS>  (1) 
250.131742452

>  <FORMULA>  (1) 
C13H18N2O3

>  <GENERIC_NAME>  (1) 
Lacosamide

>  <INCHI_IDENTIFIER>  (1) 
InChI=1S/C13H18N2O3/c1-10(16)15-12(9-18-2)13(17)14-8-11-6-4-3-5-7-11/h3-7,12H,8-9H2,1-2H3,(H,14,17)(H,15,16)/t12-/m1/s1

>  <INCHI_KEY>  (1) 
VPPJLAIAVCUEMN-GFCCVEGCSA-N

>  <INTERNATIONAL_BRANDS>  (1) 
Vimpat

>  <JCHEM_ACCEPTOR_COUNT>  (1) 
3

>  <JCHEM_AVERAGE_POLARIZABILITY>  (1) 
26.68168639862454

>  <JCHEM_BIOAVAILABILITY>  (1) 
1

>  <JCHEM_DONOR_COUNT>  (1) 
2

>  <JCHEM_FORMAL_CHARGE>  (1) 
0

>  <JCHEM_GHOSE_FILTER>  (1) 
1

>  <JCHEM_IUPAC>  (1) 
(2R)-N-benzyl-2-acetamido-3-methoxypropanamide

>  <JCHEM_LOGP>  (1) 
-0.022441605333333836

>  <JCHEM_MDDR_LIKE_RULE>  (1) 
0

>  <JCHEM_NUMBER_OF_RINGS>  (1) 
1

>  <JCHEM_PHYSIOLOGICAL_CHARGE>  (1) 
0

>  <JCHEM_PKA>  (1) 
14.95793301380014

>  <JCHEM_PKA_STRONGEST_ACIDIC>  (1) 
12.468967174036923

>  <JCHEM_PKA_STRONGEST_BASIC>  (1) 
-1.5064752262578738

>  <JCHEM_POLAR_SURFACE_AREA>  (1) 
67.43

>  <JCHEM_REFRACTIVITY>  (1) 
67.56750000000001

>  <JCHEM_ROTATABLE_BOND_COUNT>  (1) 
6

>  <JCHEM_RULE_OF_FIVE>  (1) 
1

>  <JCHEM_TRADITIONAL_IUPAC>  (1) 
lacosamide

>  <JCHEM_VEBER_RULE>  (1) 
0

>  <MOLECULAR_WEIGHT>  (1) 
250.2936

>  <PRODUCTS>  (1) 
Lacosamide; Vimpat

>  <SMILES>  (1) 
COC[C@@H](NC(C)=O)C(=O)NCC1=CC=CC=C1

>  <SYNONYMS>  (1) 
Erlosamide; Harkoseride

$$$$
