
     RDKit          2D

 40 40  0  0  0  0  0  0  0  0999 V2000
    5.2224    1.6005    0.0000 P   0  0  0  0  0  0  0  0  0  0  0  0
    3.7935   -0.0495    0.0000 O   0  0  0  0  0  0  0  0  0  0  0  0
    4.5080    1.1880    0.0000 O   0  0  0  0  0  0  0  0  0  0  0  0
    4.8099    2.3150    0.0000 O   0  0  0  0  0  0  0  0  0  0  0  0
    5.9370    2.0130    0.0000 O   0  0  0  0  0  0  0  0  0  0  0  0
    5.6350    0.8861    0.0000 O   0  0  0  0  0  0  0  0  0  0  0  0
    5.2224   -0.8745    0.0000 C   0  0  0  0  0  0  0  0  0  0  0  0
    2.3645   -0.8745    0.0000 C   0  0  0  0  0  0  0  0  0  0  0  0
    4.5080   -1.2870    0.0000 C   0  0  0  0  0  0  0  0  0  0  0  0
    3.0791   -1.2870    0.0000 C   0  0  0  0  0  0  0  0  0  0  0  0
    3.7935   -0.8745    0.0000 C   0  0  0  0  0  0  0  0  0  0  0  0
    4.5080   -2.1120    0.0000 C   0  0  0  0  0  0  0  0  0  0  0  0
    3.0791   -2.1120    0.0000 C   0  0  0  0  0  0  0  0  0  0  0  0
    5.9370   -1.2870    0.0000 C   0  0  0  0  0  0  0  0  0  0  0  0
    5.2224   -0.0495    0.0000 C   0  0  0  0  0  0  0  0  0  0  0  0
    1.6500   -1.2870    0.0000 C   0  0  0  0  0  0  0  0  0  0  0  0
    2.3645   -0.0495    0.0000 C   0  0  0  0  0  0  0  0  0  0  0  0
    3.7935   -2.5246    0.0000 C   0  0  0  0  0  0  0  0  0  0  0  0
    4.5080    0.3630    0.0000 C   0  0  0  0  0  0  0  0  0  0  0  0
    0.0000    0.0000    0.0000 H   0  0  0  0  0  0  0  0  0  0  0  0
    0.0000    0.0000    0.0000 H   0  0  0  0  0  0  0  0  0  0  0  0
    0.0000    0.0000    0.0000 H   0  0  0  0  0  0  0  0  0  0  0  0
    0.0000    0.0000    0.0000 H   0  0  0  0  0  0  0  0  0  0  0  0
    0.0000    0.0000    0.0000 H   0  0  0  0  0  0  0  0  0  0  0  0
    0.0000    0.0000    0.0000 H   0  0  0  0  0  0  0  0  0  0  0  0
    0.0000    0.0000    0.0000 H   0  0  0  0  0  0  0  0  0  0  0  0
    0.0000    0.0000    0.0000 H   0  0  0  0  0  0  0  0  0  0  0  0
    0.0000    0.0000    0.0000 H   0  0  0  0  0  0  0  0  0  0  0  0
    0.0000    0.0000    0.0000 H   0  0  0  0  0  0  0  0  0  0  0  0
    0.0000    0.0000    0.0000 H   0  0  0  0  0  0  0  0  0  0  0  0
    0.0000    0.0000    0.0000 H   0  0  0  0  0  0  0  0  0  0  0  0
    0.0000    0.0000    0.0000 H   0  0  0  0  0  0  0  0  0  0  0  0
    0.0000    0.0000    0.0000 H   0  0  0  0  0  0  0  0  0  0  0  0
    0.0000    0.0000    0.0000 H   0  0  0  0  0  0  0  0  0  0  0  0
    0.0000    0.0000    0.0000 H   0  0  0  0  0  0  0  0  0  0  0  0
    0.0000    0.0000    0.0000 H   0  0  0  0  0  0  0  0  0  0  0  0
    0.0000    0.0000    0.0000 H   0  0  0  0  0  0  0  0  0  0  0  0
    0.0000    0.0000    0.0000 H   0  0  0  0  0  0  0  0  0  0  0  0
    0.0000    0.0000    0.0000 H   0  0  0  0  0  0  0  0  0  0  0  0
    0.0000    0.0000    0.0000 H   0  0  0  0  0  0  0  0  0  0  0  0
  1  3  1  0
  1  4  1  0
  1  5  1  0
  1  6  2  0
  2 11  1  0
  2 19  1  0
  3 19  1  0
  7  9  1  0
  7 14  1  0
  7 15  1  0
  8 10  1  0
  8 16  1  0
  8 17  1  0
  9 11  2  0
  9 12  1  0
 10 11  1  0
 10 13  2  0
 12 18  2  0
 13 18  1  0
  4 20  1  0
  5 21  1  0
  7 22  1  0
  8 23  1  0
 12 24  1  0
 13 25  1  0
 14 26  1  0
 14 27  1  0
 14 28  1  0
 15 29  1  0
 15 30  1  0
 15 31  1  0
 16 32  1  0
 16 33  1  0
 16 34  1  0
 17 35  1  0
 17 36  1  0
 17 37  1  0
 18 38  1  0
 19 39  1  0
 19 40  1  0
M  END
>  <ALOGPS_LOGP>  (1) 
2.23

>  <ALOGPS_LOGS>  (1) 
-2.98

>  <ALOGPS_SOLUBILITY>  (1) 
3.02e-01 g/l

>  <DATABASE_ID>  (1) 
DB06716

>  <DATABASE_NAME>  (1) 
drugbank

>  <DRUGBANK_ID>  (1) 
DB06716

>  <DRUG_GROUPS>  (1) 
approved; illicit; investigational

>  <EXACT_MASS>  (1) 
288.112660294

>  <FORMULA>  (1) 
C13H21O5P

>  <GENERIC_NAME>  (1) 
Fospropofol

>  <INCHI_IDENTIFIER>  (1) 
InChI=1S/C13H21O5P/c1-9(2)11-6-5-7-12(10(3)4)13(11)17-8-18-19(14,15)16/h5-7,9-10H,8H2,1-4H3,(H2,14,15,16)

>  <INCHI_KEY>  (1) 
QVNNONOFASOXQV-UHFFFAOYSA-N

>  <INTERNATIONAL_BRANDS>  (1) 
Aquavan

>  <JCHEM_ACCEPTOR_COUNT>  (1) 
4

>  <JCHEM_AVERAGE_POLARIZABILITY>  (1) 
28.996919214934877

>  <JCHEM_BIOAVAILABILITY>  (1) 
1

>  <JCHEM_DONOR_COUNT>  (1) 
2

>  <JCHEM_FORMAL_CHARGE>  (1) 
0

>  <JCHEM_GHOSE_FILTER>  (1) 
1

>  <JCHEM_IUPAC>  (1) 
[2,6-bis(propan-2-yl)phenoxymethoxy]phosphonic acid

>  <JCHEM_LOGP>  (1) 
3.602025750666667

>  <JCHEM_MDDR_LIKE_RULE>  (1) 
0

>  <JCHEM_NUMBER_OF_RINGS>  (1) 
1

>  <JCHEM_PHYSIOLOGICAL_CHARGE>  (1) 
-2

>  <JCHEM_PKA>  (1) 
6.495518029066194

>  <JCHEM_PKA_STRONGEST_ACIDIC>  (1) 
1.4372194016772424

>  <JCHEM_PKA_STRONGEST_BASIC>  (1) 
-4.973727492789276

>  <JCHEM_POLAR_SURFACE_AREA>  (1) 
75.99000000000001

>  <JCHEM_REFRACTIVITY>  (1) 
72.87750000000001

>  <JCHEM_ROTATABLE_BOND_COUNT>  (1) 
6

>  <JCHEM_RULE_OF_FIVE>  (1) 
1

>  <JCHEM_TRADITIONAL_IUPAC>  (1) 
fospropofol

>  <JCHEM_VEBER_RULE>  (1) 
0

>  <MOLECULAR_WEIGHT>  (1) 
288.2766

>  <PRODUCTS>  (1) 
Lusedra

>  <SALTS>  (1) 
Fospropofol disodium

>  <SECONDARY_ACCESSION_NUMBERS>  (1) 
DB05279

>  <SMILES>  (1) 
CC(C)C1=CC=CC(C(C)C)=C1OCOP(O)(O)=O

$$$$
