
     RDKit          2D

 35 36  0  0  0  0  0  0  0  0999 V2000
    0.7589    2.0266    0.0000 C   0  0  0  0  0  0  0  0  0  0  0  0
    1.4733    1.6141    0.0000 N   0  0  0  0  0  0  0  0  0  0  0  0
    1.4733    0.7891    0.0000 C   0  0  0  0  0  0  0  0  0  0  0  0
    0.7589    0.3766    0.0000 N   0  0  0  0  0  0  0  0  0  0  0  0
    0.0444    0.7891    0.0000 C   0  0  0  0  0  0  0  0  0  0  0  0
   -0.6701    0.3766    0.0000 N   0  0  0  0  0  0  0  0  0  0  0  0
   -0.6701   -0.4484    0.0000 S   0  0  0  0  0  0  0  0  0  0  0  0
   -1.4951   -0.4484    0.0000 O   0  0  0  0  0  0  0  0  0  0  0  0
    0.1549   -0.4484    0.0000 O   0  0  0  0  0  0  0  0  0  0  0  0
   -0.6701   -1.2734    0.0000 C   0  0  0  0  0  0  0  0  0  0  0  0
    0.0444   -1.6859    0.0000 C   0  0  0  0  0  0  0  0  0  0  0  0
    0.0444   -2.5109    0.0000 C   0  0  0  0  0  0  0  0  0  0  0  0
   -0.6701   -2.9234    0.0000 C   0  0  0  0  0  0  0  0  0  0  0  0
   -0.6701   -3.7484    0.0000 N   0  0  0  0  0  0  0  0  0  0  0  0
   -1.3846   -2.5109    0.0000 C   0  0  0  0  0  0  0  0  0  0  0  0
   -1.3846   -1.6859    0.0000 C   0  0  0  0  0  0  0  0  0  0  0  0
    0.0444    1.6141    0.0000 C   0  0  0  0  0  0  0  0  0  0  0  0
    0.7589    2.8516    0.0000 O   0  0  0  0  0  0  0  0  0  0  0  0
    1.4734    3.2641    0.0000 C   0  0  0  0  0  0  0  0  0  0  0  0
    2.1878    0.3766    0.0000 O   0  0  0  0  0  0  0  0  0  0  0  0
    2.1878   -0.4484    0.0000 C   0  0  0  0  0  0  0  0  0  0  0  0
    0.0000    0.0000    0.0000 H   0  0  0  0  0  0  0  0  0  0  0  0
    0.0000    0.0000    0.0000 H   0  0  0  0  0  0  0  0  0  0  0  0
    0.0000    0.0000    0.0000 H   0  0  0  0  0  0  0  0  0  0  0  0
    0.0000    0.0000    0.0000 H   0  0  0  0  0  0  0  0  0  0  0  0
    0.0000    0.0000    0.0000 H   0  0  0  0  0  0  0  0  0  0  0  0
    0.0000    0.0000    0.0000 H   0  0  0  0  0  0  0  0  0  0  0  0
    0.0000    0.0000    0.0000 H   0  0  0  0  0  0  0  0  0  0  0  0
    0.0000    0.0000    0.0000 H   0  0  0  0  0  0  0  0  0  0  0  0
    0.0000    0.0000    0.0000 H   0  0  0  0  0  0  0  0  0  0  0  0
    0.0000    0.0000    0.0000 H   0  0  0  0  0  0  0  0  0  0  0  0
    0.0000    0.0000    0.0000 H   0  0  0  0  0  0  0  0  0  0  0  0
    0.0000    0.0000    0.0000 H   0  0  0  0  0  0  0  0  0  0  0  0
    0.0000    0.0000    0.0000 H   0  0  0  0  0  0  0  0  0  0  0  0
    0.0000    0.0000    0.0000 H   0  0  0  0  0  0  0  0  0  0  0  0
 18  1  1  0
  1  2  2  0
  1 17  1  0
  2  3  1  0
  3 20  1  0
  3  4  2  0
  4  5  1  0
  5  6  1  0
  5 17  2  0
  6  7  1  0
  7  8  2  0
  7  9  2  0
  7 10  1  0
 10 11  2  0
 10 16  1  0
 11 12  1  0
 12 13  2  0
 13 14  1  0
 13 15  1  0
 15 16  2  0
 18 19  1  0
 20 21  1  0
  6 22  1  0
 11 23  1  0
 12 24  1  0
 14 25  1  0
 14 26  1  0
 15 27  1  0
 16 28  1  0
 17 29  1  0
 19 30  1  0
 19 31  1  0
 19 32  1  0
 21 33  1  0
 21 34  1  0
 21 35  1  0
M  END
>  <ALOGPS_LOGP>  (1) 
1.08

>  <ALOGPS_LOGS>  (1) 
-3.05

>  <ALOGPS_SOLUBILITY>  (1) 
2.78e-01 g/l

>  <DATABASE_ID>  (1) 
DB06150

>  <DATABASE_NAME>  (1) 
drugbank

>  <DRUGBANK_ID>  (1) 
DB06150

>  <DRUG_GROUPS>  (1) 
approved; vet_approved

>  <EXACT_MASS>  (1) 
310.073575646

>  <FORMULA>  (1) 
C12H14N4O4S

>  <GENERIC_NAME>  (1) 
Sulfadimethoxine

>  <INCHI_IDENTIFIER>  (1) 
InChI=1S/C12H14N4O4S/c1-19-11-7-10(14-12(15-11)20-2)16-21(17,18)9-5-3-8(13)4-6-9/h3-7H,13H2,1-2H3,(H,14,15,16)

>  <INCHI_KEY>  (1) 
ZZORFUFYDOWNEF-UHFFFAOYSA-N

>  <JCHEM_ACCEPTOR_COUNT>  (1) 
7

>  <JCHEM_AVERAGE_POLARIZABILITY>  (1) 
29.59705034803726

>  <JCHEM_BIOAVAILABILITY>  (1) 
1

>  <JCHEM_DONOR_COUNT>  (1) 
2

>  <JCHEM_FORMAL_CHARGE>  (1) 
0

>  <JCHEM_GHOSE_FILTER>  (1) 
1

>  <JCHEM_IUPAC>  (1) 
4-amino-N-(2,6-dimethoxypyrimidin-4-yl)benzene-1-sulfonamide

>  <JCHEM_LOGP>  (1) 
1.2608333366666664

>  <JCHEM_MDDR_LIKE_RULE>  (1) 
0

>  <JCHEM_NUMBER_OF_RINGS>  (1) 
2

>  <JCHEM_PHYSIOLOGICAL_CHARGE>  (1) 
-1

>  <JCHEM_PKA_STRONGEST_ACIDIC>  (1) 
6.905270599396808

>  <JCHEM_PKA_STRONGEST_BASIC>  (1) 
1.9538476663144784

>  <JCHEM_POLAR_SURFACE_AREA>  (1) 
116.43

>  <JCHEM_REFRACTIVITY>  (1) 
77.75430000000003

>  <JCHEM_ROTATABLE_BOND_COUNT>  (1) 
4

>  <JCHEM_RULE_OF_FIVE>  (1) 
1

>  <JCHEM_TRADITIONAL_IUPAC>  (1) 
sulfadimethoxine

>  <JCHEM_VEBER_RULE>  (1) 
0

>  <MOLECULAR_WEIGHT>  (1) 
310.329

>  <SALTS>  (1) 
Sulfadimethoxine sodium

>  <SMILES>  (1) 
COC1=NC(OC)=NC(NS(=O)(=O)C2=CC=C(N)C=C2)=C1

>  <SYNONYMS>  (1) 
2,4-dimethoxy-6-sulfanilamido-1,3-diazine; Sulfadimethoxydiazine; Sulphadimethoxine

$$$$
