
     RDKit          2D

 93 91  0  0  0  0  0  0  0  0999 V2000
   -3.1099   -2.6917    0.0000 C   0  0  0  0  0  0  0  0  0  0  0  0
   -1.0251   -4.8197    0.0000 C   0  0  0  0  0  0  0  0  0  0  0  0
   -2.6087   -3.3470    0.0000 C   0  0  0  0  0  0  0  0  0  0  0  0
   -2.7930   -1.9300    0.0000 C   0  0  0  0  0  0  0  0  0  0  0  0
   -0.2571   -4.5185    0.0000 C   0  0  0  0  0  0  0  0  0  0  0  0
   -1.6700   -4.3051    0.0000 C   0  0  0  0  0  0  0  0  0  0  0  0
   -1.7906   -3.2406    0.0000 C   0  0  0  0  0  0  0  0  0  0  0  0
   -1.9749   -1.8236    0.0000 C   0  0  0  0  0  0  0  0  0  0  0  0
   -0.1339   -3.7027    0.0000 C   0  0  0  0  0  0  0  0  0  0  0  0
   -1.5468   -3.4894    0.0000 C   0  0  0  0  0  0  0  0  0  0  0  0
   -0.4917   -0.9529    0.0000 C   0  0  0  0  0  0  0  0  0  0  0  0
    0.6556   -1.8046    0.0000 C   0  0  0  0  0  0  0  0  0  0  0  0
   -0.9834   -1.6153    0.0000 C   0  0  0  0  0  0  0  0  0  0  0  0
    0.1639   -2.4670    0.0000 C   0  0  0  0  0  0  0  0  0  0  0  0
   -1.8030    2.0753    0.0000 C   0  0  0  0  0  0  0  0  0  0  0  0
   -2.2947    1.4128    0.0000 C   0  0  0  0  0  0  0  0  0  0  0  0
   -0.4917    2.6431    0.0000 C   0  0  0  0  0  0  0  0  0  0  0  0
   -0.6556    1.2236    0.0000 C   0  0  0  0  0  0  0  0  0  0  0  0
   -3.6060    0.8450    0.0000 C   0  0  0  0  0  0  0  0  0  0  0  0
   -3.4421    2.2646    0.0000 C   0  0  0  0  0  0  0  0  0  0  0  0
    1.6391    3.1163    0.0000 C   0  0  0  0  0  0  0  0  0  0  0  0
    0.4917    3.9680    0.0000 C   0  0  0  0  0  0  0  0  0  0  0  0
    0.6556    1.7914    0.0000 C   0  0  0  0  0  0  0  0  0  0  0  0
   -1.4737   -2.4789    0.0000 C   0  0  0  0  0  0  0  0  0  0  0  0
   -0.7788   -3.1882    0.0000 C   0  0  0  0  0  0  0  0  0  0  0  0
    0.3278    2.5485    0.0000 C   0  0  0  0  0  0  0  0  0  0  0  0
    0.3278   -1.0475    0.0000 C   0  0  0  0  0  0  0  0  0  0  0  0
   -1.1473    0.5611    0.0000 C   0  0  0  0  0  0  0  0  0  0  0  0
   -3.2782    0.0880    0.0000 C   0  0  0  0  0  0  0  0  0  0  0  0
   -2.9503    2.9270    0.0000 C   0  0  0  0  0  0  0  0  0  0  0  0
    2.1308    3.7787    0.0000 C   0  0  0  0  0  0  0  0  0  0  0  0
   -0.3278    4.0626    0.0000 C   0  0  0  0  0  0  0  0  0  0  0  0
   -0.6556   -2.3724    0.0000 C   0  0  0  0  0  0  0  0  0  0  0  0
   -0.9834    1.9807    0.0000 N   0  0  0  0  0  0  0  0  0  0  0  0
   -3.1143    1.5075    0.0000 N   0  0  0  0  0  0  0  0  0  0  0  0
    0.8195    3.2109    0.0000 N   0  0  0  0  0  0  0  0  0  0  0  0
   -0.8195   -0.1958    0.0000 O   0  0  0  0  0  0  0  0  0  0  0  0
   -1.9669    0.6558    0.0000 O   0  0  0  0  0  0  0  0  0  0  0  0
   -3.7699   -0.5744    0.0000 O   0  0  0  0  0  0  0  0  0  0  0  0
   -2.4586   -0.0066    0.0000 O   0  0  0  0  0  0  0  0  0  0  0  0
   -2.1308    2.8324    0.0000 O   0  0  0  0  0  0  0  0  0  0  0  0
   -3.2782    3.6841    0.0000 O   0  0  0  0  0  0  0  0  0  0  0  0
    1.8030    4.5358    0.0000 O   0  0  0  0  0  0  0  0  0  0  0  0
    2.9503    3.6841    0.0000 O   0  0  0  0  0  0  0  0  0  0  0  0
   -0.8195    3.4002    0.0000 O   0  0  0  0  0  0  0  0  0  0  0  0
   -0.6556    4.8197    0.0000 O   0  0  0  0  0  0  0  0  0  0  0  0
    1.2488    0.6997    0.0000 O   0  0  0  0  0  0  0  0  0  0  0  0
   -0.2653    0.0441    0.0000 O   0  0  0  0  0  0  0  0  0  0  0  0
    0.1639    1.1289    0.0000 O   0  0  0  0  0  0  0  0  0  0  0  0
    0.8195   -0.3851    0.0000 O   0  0  0  0  0  0  0  0  0  0  0  0
    0.4917    0.3719    0.0000 P   0  0  0  0  0  0  0  0  0  0  0  0
   -2.7864    0.7504    0.0000 Gd  0  0  0  0  0  0  0  0  0  0  0  0
   -1.6391   -0.1012    0.0000 Na  0  0  0  0  0  0  0  0  0  0  0  0
   -3.6060    4.4411    0.0000 Na  0  0  0  0  0  0  0  0  0  0  0  0
    3.7699    3.5894    0.0000 Na  0  0  0  0  0  0  0  0  0  0  0  0
    0.0000    0.0000    0.0000 H   0  0  0  0  0  0  0  0  0  0  0  0
    0.0000    0.0000    0.0000 H   0  0  0  0  0  0  0  0  0  0  0  0
    0.0000    0.0000    0.0000 H   0  0  0  0  0  0  0  0  0  0  0  0
    0.0000    0.0000    0.0000 H   0  0  0  0  0  0  0  0  0  0  0  0
    0.0000    0.0000    0.0000 H   0  0  0  0  0  0  0  0  0  0  0  0
    0.0000    0.0000    0.0000 H   0  0  0  0  0  0  0  0  0  0  0  0
    0.0000    0.0000    0.0000 H   0  0  0  0  0  0  0  0  0  0  0  0
    0.0000    0.0000    0.0000 H   0  0  0  0  0  0  0  0  0  0  0  0
    0.0000    0.0000    0.0000 H   0  0  0  0  0  0  0  0  0  0  0  0
    0.0000    0.0000    0.0000 H   0  0  0  0  0  0  0  0  0  0  0  0
    0.0000    0.0000    0.0000 H   0  0  0  0  0  0  0  0  0  0  0  0
    0.0000    0.0000    0.0000 H   0  0  0  0  0  0  0  0  0  0  0  0
    0.0000    0.0000    0.0000 H   0  0  0  0  0  0  0  0  0  0  0  0
    0.0000    0.0000    0.0000 H   0  0  0  0  0  0  0  0  0  0  0  0
    0.0000    0.0000    0.0000 H   0  0  0  0  0  0  0  0  0  0  0  0
    0.0000    0.0000    0.0000 H   0  0  0  0  0  0  0  0  0  0  0  0
    0.0000    0.0000    0.0000 H   0  0  0  0  0  0  0  0  0  0  0  0
    0.0000    0.0000    0.0000 H   0  0  0  0  0  0  0  0  0  0  0  0
    0.0000    0.0000    0.0000 H   0  0  0  0  0  0  0  0  0  0  0  0
    0.0000    0.0000    0.0000 H   0  0  0  0  0  0  0  0  0  0  0  0
    0.0000    0.0000    0.0000 H   0  0  0  0  0  0  0  0  0  0  0  0
    0.0000    0.0000    0.0000 H   0  0  0  0  0  0  0  0  0  0  0  0
    0.0000    0.0000    0.0000 H   0  0  0  0  0  0  0  0  0  0  0  0
    0.0000    0.0000    0.0000 H   0  0  0  0  0  0  0  0  0  0  0  0
    0.0000    0.0000    0.0000 H   0  0  0  0  0  0  0  0  0  0  0  0
    0.0000    0.0000    0.0000 H   0  0  0  0  0  0  0  0  0  0  0  0
    0.0000    0.0000    0.0000 H   0  0  0  0  0  0  0  0  0  0  0  0
    0.0000    0.0000    0.0000 H   0  0  0  0  0  0  0  0  0  0  0  0
    0.0000    0.0000    0.0000 H   0  0  0  0  0  0  0  0  0  0  0  0
    0.0000    0.0000    0.0000 H   0  0  0  0  0  0  0  0  0  0  0  0
    0.0000    0.0000    0.0000 H   0  0  0  0  0  0  0  0  0  0  0  0
    0.0000    0.0000    0.0000 H   0  0  0  0  0  0  0  0  0  0  0  0
    0.0000    0.0000    0.0000 H   0  0  0  0  0  0  0  0  0  0  0  0
    0.0000    0.0000    0.0000 H   0  0  0  0  0  0  0  0  0  0  0  0
    0.0000    0.0000    0.0000 H   0  0  0  0  0  0  0  0  0  0  0  0
    0.0000    0.0000    0.0000 H   0  0  0  0  0  0  0  0  0  0  0  0
    0.0000    0.0000    0.0000 H   0  0  0  0  0  0  0  0  0  0  0  0
    0.0000    0.0000    0.0000 H   0  0  0  0  0  0  0  0  0  0  0  0
  3  1  2  0
  4  1  1  0
  5  2  2  0
  6  2  1  0
  7  3  1  0
  8  4  2  0
  9  5  1  0
 10  6  2  0
 13 11  1  0
 14 12  1  0
 16 15  1  0
 24  7  2  0
 24  8  1  0
 25  9  2  0
 25 10  1  0
 26 17  1  0
 26 23  1  0
 27 11  1  0
 27 12  1  0
 28 18  1  0
 29 19  1  0
 30 20  1  0
 31 21  1  0
 32 22  1  0
 33 13  1  0
 33 14  1  0
 33 24  1  0
 33 25  1  0
 34 15  1  0
 34 17  1  0
 34 18  1  0
 35 16  1  0
 35 19  1  0
 35 20  1  0
 36 21  1  0
 36 22  1  0
 36 26  1  0
 37 28  2  0
 38 28  1  0
 39 29  2  0
 40 29  1  0
 41 30  2  0
 42 30  1  0
 43 31  2  0
 44 31  1  0
 45 32  2  0
 46 32  1  0
 49 23  1  0
 50 27  1  0
 51 47  1  0
 51 48  2  0
 51 49  1  0
 51 50  1  0
  1 56  1  0
  2 57  1  0
  3 58  1  0
  4 59  1  0
  5 60  1  0
  6 61  1  0
  7 62  1  0
  8 63  1  0
  9 64  1  0
 10 65  1  0
 11 66  1  0
 11 67  1  0
 12 68  1  0
 12 69  1  0
 13 70  1  0
 13 71  1  0
 14 72  1  0
 14 73  1  0
 15 74  1  0
 15 75  1  0
 16 76  1  0
 16 77  1  0
 17 78  1  0
 17 79  1  0
 18 80  1  0
 18 81  1  0
 19 82  1  0
 19 83  1  0
 20 84  1  0
 20 85  1  0
 21 86  1  0
 21 87  1  0
 22 88  1  0
 22 89  1  0
 23 90  1  0
 23 91  1  0
 26 92  1  0
 27 93  1  0
M  CHG  8  38  -1  40  -1  42  -1  44  -1  46  -1  47  -1  52   3  53   1
M  CHG  2  54   1  55   1
M  END
>  <ALOGPS_LOGP>  (1) 
3.84

>  <ALOGPS_LOGS>  (1) 
-3.80

>  <ALOGPS_SOLUBILITY>  (1) 
1.69e-01 g/l

>  <DATABASE_ID>  (1) 
DB06705

>  <DATABASE_NAME>  (1) 
drugbank

>  <DRUGBANK_ID>  (1) 
DB06705

>  <DRUG_GROUPS>  (1) 
approved

>  <EXACT_MASS>  (1) 
958.10256

>  <FORMULA>  (1) 
C33H38GdN3Na3O14P

>  <GENERIC_NAME>  (1) 
Gadofosveset trisodium

>  <INCHI_IDENTIFIER>  (1) 
InChI=1S/C33H44N3O14P.Gd.3Na/c37-28(38)18-34(15-16-35(19-29(39)40)20-30(41)42)17-26(36(21-31(43)44)22-32(45)46)23-49-51(47,48)50-27-11-13-33(14-12-27,24-7-3-1-4-8-24)25-9-5-2-6-10-25;;;;/h1-10,26-27H,11-23H2,(H,37,38)(H,39,40)(H,41,42)(H,43,44)(H,45,46)(H,47,48);;;;/q;+3;3*+1/p-6

>  <INCHI_KEY>  (1) 
XGOSYNSWSRUASG-UHFFFAOYSA-H

>  <JCHEM_ACCEPTOR_COUNT>  (1) 
15

>  <JCHEM_ATOM_COUNT>  (1) 
93

>  <JCHEM_AVERAGE_POLARIZABILITY>  (1) 
69.27651910806816

>  <JCHEM_BIOAVAILABILITY>  (1) 
0

>  <JCHEM_DONOR_COUNT>  (1) 
0

>  <JCHEM_FORMAL_CHARGE>  (1) 
0

>  <JCHEM_GHOSE_FILTER>  (1) 
0

>  <JCHEM_IUPAC>  (1) 
gadolinium(3+) ion trisodium 2-{[1-({2-[bis(carboxylatomethyl)amino]ethyl}(carboxylatomethyl)amino)-3-[(4,4-diphenylcyclohexyl phosphonato)oxy]propan-2-yl](carboxylatomethyl)amino}acetate

>  <JCHEM_LOGP>  (1) 
-1.1778206809936707

>  <JCHEM_MDDR_LIKE_RULE>  (1) 
1

>  <JCHEM_NUMBER_OF_RINGS>  (1) 
3

>  <JCHEM_PHYSIOLOGICAL_CHARGE>  (1) 
-4

>  <JCHEM_PKA>  (1) 
1.7212967518134819

>  <JCHEM_PKA_STRONGEST_ACIDIC>  (1) 
0.7821475840886425

>  <JCHEM_PKA_STRONGEST_BASIC>  (1) 
9.672541657658215

>  <JCHEM_POLAR_SURFACE_AREA>  (1) 
268.96

>  <JCHEM_REFRACTIVITY>  (1) 
241.55310000000006

>  <JCHEM_ROTATABLE_BOND_COUNT>  (1) 
23

>  <JCHEM_RULE_OF_FIVE>  (1) 
0

>  <JCHEM_TRADITIONAL_IUPAC>  (1) 
gadolinium(3+) ion trisodium 2-{[1-({2-[bis(carboxylatomethyl)amino]ethyl}(carboxylatomethyl)amino)-3-[(4,4-diphenylcyclohexyl phosphonato)oxy]propan-2-yl](carboxylatomethyl)amino}acetate

>  <JCHEM_VEBER_RULE>  (1) 
0

>  <MOLECULAR_WEIGHT>  (1) 
957.87

>  <PRODUCTS>  (1) 
Ablavar; Vasovist

>  <SALTS>  (1) 
Gadofosveset trisodium monohydrate

>  <SMILES>  (1) 
[Na+].[Na+].[Na+].[Gd+3].[O-]C(=O)CN(CCN(CC([O-])=O)CC([O-])=O)CC(COP([O-])(=O)OC1CCC(CC1)(C1=CC=CC=C1)C1=CC=CC=C1)N(CC([O-])=O)CC([O-])=O

>  <SYNONYMS>  (1) 
Gadofosveset

$$$$
