
     RDKit          2D

 29 28  0  0  0  0  0  0  0  0999 V2000
    4.1474    0.4420    0.0000 O   0  0  0  0  0  0  0  0  0  0  0  0
    4.9575    0.2861    0.0000 N   0  0  0  0  0  0  0  0  0  0  0  0
    5.4976    0.9097    0.0000 O   0  0  0  0  0  0  0  0  0  0  0  0
    5.2276   -0.4935    0.0000 O   0  0  0  0  0  0  0  0  0  0  0  0
    6.0377   -0.6494    0.0000 C   0  0  0  0  0  0  0  0  0  0  0  0
    6.3077   -1.4289    0.0000 C   0  0  0  0  0  0  0  0  0  0  0  0
    6.5778   -2.2085    0.0000 C   0  0  0  0  0  0  0  0  0  0  0  0
    7.3879   -2.3644    0.0000 O   0  0  0  0  0  0  0  0  0  0  0  0
    7.6580   -3.1440    0.0000 N   0  0  0  0  0  0  0  0  0  0  0  0
    8.4681   -3.2999    0.0000 O   0  0  0  0  0  0  0  0  0  0  0  0
    7.1179   -3.7676    0.0000 O   0  0  0  0  0  0  0  0  0  0  0  0
    5.5282   -1.6990    0.0000 C   0  0  0  0  0  0  0  0  0  0  0  0
    4.9046   -1.1589    0.0000 O   0  0  0  0  0  0  0  0  0  0  0  0
    4.1250   -1.4289    0.0000 N   0  0  0  0  0  0  0  0  0  0  0  0
    3.5014   -0.8889    0.0000 O   0  0  0  0  0  0  0  0  0  0  0  0
    3.9691   -2.2391    0.0000 O   0  0  0  0  0  0  0  0  0  0  0  0
    7.0873   -1.1589    0.0000 C   0  0  0  0  0  0  0  0  0  0  0  0
    7.7109   -1.6990    0.0000 O   0  0  0  0  0  0  0  0  0  0  0  0
    8.4905   -1.4289    0.0000 N   0  0  0  0  0  0  0  0  0  0  0  0
    8.6464   -0.6188    0.0000 O   0  0  0  0  0  0  0  0  0  0  0  0
    9.1141   -1.9690    0.0000 O   0  0  0  0  0  0  0  0  0  0  0  0
    0.0000    0.0000    0.0000 H   0  0  0  0  0  0  0  0  0  0  0  0
    0.0000    0.0000    0.0000 H   0  0  0  0  0  0  0  0  0  0  0  0
    0.0000    0.0000    0.0000 H   0  0  0  0  0  0  0  0  0  0  0  0
    0.0000    0.0000    0.0000 H   0  0  0  0  0  0  0  0  0  0  0  0
    0.0000    0.0000    0.0000 H   0  0  0  0  0  0  0  0  0  0  0  0
    0.0000    0.0000    0.0000 H   0  0  0  0  0  0  0  0  0  0  0  0
    0.0000    0.0000    0.0000 H   0  0  0  0  0  0  0  0  0  0  0  0
    0.0000    0.0000    0.0000 H   0  0  0  0  0  0  0  0  0  0  0  0
  1  2  1  0
  2  3  2  0
  2  4  1  0
  4  5  1  0
  5  6  1  0
  6  7  1  0
  7  8  1  0
  8  9  1  0
  9 10  1  0
  9 11  2  0
  6 12  1  0
 12 13  1  0
 13 14  1  0
 14 15  1  0
 14 16  2  0
  6 17  1  0
 17 18  1  0
 18 19  1  0
 19 20  1  0
 19 21  2  0
  5 22  1  0
  5 23  1  0
  7 24  1  0
  7 25  1  0
 12 26  1  0
 12 27  1  0
 17 28  1  0
 17 29  1  0
M  CHG  8   1  -1   2   1   9   1  10  -1  14   1  15  -1  19   1  20  -1
M  END
>  <ALOGPS_LOGP>  (1) 
1.62

>  <ALOGPS_LOGS>  (1) 
-3.38

>  <ALOGPS_SOLUBILITY>  (1) 
1.33e-01 g/l

>  <DATABASE_ID>  (1) 
DB06154

>  <DATABASE_NAME>  (1) 
drugbank

>  <DRUGBANK_ID>  (1) 
DB06154

>  <DRUG_GROUPS>  (1) 
approved

>  <EXACT_MASS>  (1) 
316.01387174

>  <FORMULA>  (1) 
C5H8N4O12

>  <GENERIC_NAME>  (1) 
Pentaerythritol Tetranitrate

>  <INCHI_IDENTIFIER>  (1) 
InChI=1S/C5H8N4O12/c10-6(11)18-1-5(2-19-7(12)13,3-20-8(14)15)4-21-9(16)17/h1-4H2

>  <INCHI_KEY>  (1) 
TZRXHJWUDPFEEY-UHFFFAOYSA-N

>  <JCHEM_ACCEPTOR_COUNT>  (1) 
12

>  <JCHEM_AVERAGE_POLARIZABILITY>  (1) 
22.46856229170519

>  <JCHEM_BIOAVAILABILITY>  (1) 
0

>  <JCHEM_DONOR_COUNT>  (1) 
0

>  <JCHEM_FORMAL_CHARGE>  (1) 
0

>  <JCHEM_GHOSE_FILTER>  (1) 
1

>  <JCHEM_IUPAC>  (1) 
3-(nitrooxy)-2,2-bis[(nitrooxy)methyl]propyl nitrate

>  <JCHEM_LOGP>  (1) 
0.961219707333333

>  <JCHEM_MDDR_LIKE_RULE>  (1) 
0

>  <JCHEM_NUMBER_OF_RINGS>  (1) 
0

>  <JCHEM_PHYSIOLOGICAL_CHARGE>  (1) 
0

>  <JCHEM_PKA_STRONGEST_BASIC>  (1) 
-5.4611010401660485

>  <JCHEM_POLAR_SURFACE_AREA>  (1) 
220.19999999999996

>  <JCHEM_REFRACTIVITY>  (1) 
58.50370000000001

>  <JCHEM_ROTATABLE_BOND_COUNT>  (1) 
12

>  <JCHEM_RULE_OF_FIVE>  (1) 
0

>  <JCHEM_TRADITIONAL_IUPAC>  (1) 
pentaerythritol tetranitrate

>  <JCHEM_VEBER_RULE>  (1) 
0

>  <MOLECULAR_WEIGHT>  (1) 
316.1366

>  <PRODUCTS>  (1) 
Peritrate Sa 80mg Tab; Peritrate Tab 10mg; Peritrate Tab 20mg

>  <SMILES>  (1) 
[O-][N+](=O)OCC(CO[N+]([O-])=O)(CO[N+]([O-])=O)CO[N+]([O-])=O

>  <SYNONYMS>  (1) 
corpent; PENT; PENTA; Pentaerithrityl tetranitrate; penthrite; TEN

$$$$
