
     RDKit          2D

 36 35  0  0  0  0  0  0  0  0999 V2000
    7.6861   -0.2062    0.0000 O   0  0  0  0  0  0  0  0  0  0  0  0
    6.9716    1.0312    0.0000 O   0  0  0  0  0  0  0  0  0  0  0  0
    4.8281   -1.0312    0.0000 O   0  0  0  0  0  0  0  0  0  0  0  0
    3.3991   -0.2062    0.0000 N   0  0  0  0  0  0  0  0  0  0  0  0
    9.8295    0.2062    0.0000 C   0  0  0  0  0  0  0  0  0  0  0  0
   10.5440   -0.2062    0.0000 C   0  0  0  0  0  0  0  0  0  0  0  0
    9.1150   -0.2062    0.0000 C   0  0  0  0  0  0  0  0  0  0  0  0
   11.2585    0.2062    0.0000 C   0  0  0  0  0  0  0  0  0  0  0  0
    8.4005    0.2062    0.0000 C   0  0  0  0  0  0  0  0  0  0  0  0
   11.9729   -0.2062    0.0000 C   0  0  0  0  0  0  0  0  0  0  0  0
    6.2571   -0.2062    0.0000 C   0  0  0  0  0  0  0  0  0  0  0  0
    5.5426    0.2062    0.0000 C   0  0  0  0  0  0  0  0  0  0  0  0
    6.9716    0.2062    0.0000 C   0  0  0  0  0  0  0  0  0  0  0  0
    4.8281   -0.2062    0.0000 C   0  0  0  0  0  0  0  0  0  0  0  0
    4.1137    0.2062    0.0000 C   0  0  0  0  0  0  0  0  0  0  0  0
    0.0000    0.0000    0.0000 H   0  0  0  0  0  0  0  0  0  0  0  0
    0.0000    0.0000    0.0000 H   0  0  0  0  0  0  0  0  0  0  0  0
    0.0000    0.0000    0.0000 H   0  0  0  0  0  0  0  0  0  0  0  0
    0.0000    0.0000    0.0000 H   0  0  0  0  0  0  0  0  0  0  0  0
    0.0000    0.0000    0.0000 H   0  0  0  0  0  0  0  0  0  0  0  0
    0.0000    0.0000    0.0000 H   0  0  0  0  0  0  0  0  0  0  0  0
    0.0000    0.0000    0.0000 H   0  0  0  0  0  0  0  0  0  0  0  0
    0.0000    0.0000    0.0000 H   0  0  0  0  0  0  0  0  0  0  0  0
    0.0000    0.0000    0.0000 H   0  0  0  0  0  0  0  0  0  0  0  0
    0.0000    0.0000    0.0000 H   0  0  0  0  0  0  0  0  0  0  0  0
    0.0000    0.0000    0.0000 H   0  0  0  0  0  0  0  0  0  0  0  0
    0.0000    0.0000    0.0000 H   0  0  0  0  0  0  0  0  0  0  0  0
    0.0000    0.0000    0.0000 H   0  0  0  0  0  0  0  0  0  0  0  0
    0.0000    0.0000    0.0000 H   0  0  0  0  0  0  0  0  0  0  0  0
    0.0000    0.0000    0.0000 H   0  0  0  0  0  0  0  0  0  0  0  0
    0.0000    0.0000    0.0000 H   0  0  0  0  0  0  0  0  0  0  0  0
    0.0000    0.0000    0.0000 H   0  0  0  0  0  0  0  0  0  0  0  0
    0.0000    0.0000    0.0000 H   0  0  0  0  0  0  0  0  0  0  0  0
    0.0000    0.0000    0.0000 H   0  0  0  0  0  0  0  0  0  0  0  0
    0.0000    0.0000    0.0000 H   0  0  0  0  0  0  0  0  0  0  0  0
    0.0000    0.0000    0.0000 H   0  0  0  0  0  0  0  0  0  0  0  0
  1  9  1  0
  1 13  1  0
  2 13  2  0
  3 14  2  0
  4 15  1  0
  5  6  1  0
  5  7  1  0
  6  8  1  0
  7  9  1  0
  8 10  1  0
 11 12  1  0
 11 13  1  0
 12 14  1  0
 14 15  1  0
  4 16  1  0
  4 17  1  0
  5 18  1  0
  5 19  1  0
  6 20  1  0
  6 21  1  0
  7 22  1  0
  7 23  1  0
  8 24  1  0
  8 25  1  0
  9 26  1  0
  9 27  1  0
 10 28  1  0
 10 29  1  0
 10 30  1  0
 11 31  1  0
 11 32  1  0
 12 33  1  0
 12 34  1  0
 15 35  1  0
 15 36  1  0
M  END
>  <ALOGPS_LOGP>  (1) 
1.55

>  <ALOGPS_LOGS>  (1) 
-2.62

>  <ALOGPS_SOLUBILITY>  (1) 
5.11e-01 g/l

>  <DATABASE_ID>  (1) 
DB06261

>  <DATABASE_NAME>  (1) 
drugbank

>  <DRUGBANK_ID>  (1) 
DB06261

>  <DRUG_GROUPS>  (1) 
approved

>  <EXACT_MASS>  (1) 
215.15214354

>  <FORMULA>  (1) 
C11H21NO3

>  <GENERIC_NAME>  (1) 
Hexaminolevulinate

>  <INCHI_IDENTIFIER>  (1) 
InChI=1S/C11H21NO3/c1-2-3-4-5-8-15-11(14)7-6-10(13)9-12/h2-9,12H2,1H3

>  <INCHI_KEY>  (1) 
RYQOILLJDKPETL-UHFFFAOYSA-N

>  <INTERNATIONAL_BRANDS>  (1) 
Hexvix

>  <JCHEM_ACCEPTOR_COUNT>  (1) 
3

>  <JCHEM_ATOM_COUNT>  (1) 
36

>  <JCHEM_AVERAGE_POLARIZABILITY>  (1) 
24.960932917333498

>  <JCHEM_BIOAVAILABILITY>  (1) 
1

>  <JCHEM_DONOR_COUNT>  (1) 
1

>  <JCHEM_FORMAL_CHARGE>  (1) 
0

>  <JCHEM_GHOSE_FILTER>  (1) 
1

>  <JCHEM_IUPAC>  (1) 
hexyl 5-amino-4-oxopentanoate

>  <JCHEM_LOGP>  (1) 
1.3659431133333326

>  <JCHEM_MDDR_LIKE_RULE>  (1) 
0

>  <JCHEM_NUMBER_OF_RINGS>  (1) 
0

>  <JCHEM_PHYSIOLOGICAL_CHARGE>  (1) 
1

>  <JCHEM_PKA_STRONGEST_ACIDIC>  (1) 
16.10674862594475

>  <JCHEM_PKA_STRONGEST_BASIC>  (1) 
7.834133913242029

>  <JCHEM_POLAR_SURFACE_AREA>  (1) 
69.39

>  <JCHEM_REFRACTIVITY>  (1) 
58.2925

>  <JCHEM_ROTATABLE_BOND_COUNT>  (1) 
10

>  <JCHEM_RULE_OF_FIVE>  (1) 
1

>  <JCHEM_TRADITIONAL_IUPAC>  (1) 
hexyl 5-amino-4-oxopentanoate

>  <JCHEM_VEBER_RULE>  (1) 
0

>  <MOLECULAR_WEIGHT>  (1) 
215.293

>  <PRODUCTS>  (1) 
Cysview

>  <SALTS>  (1) 
Hexaminolevulinate hydrochloride

>  <SMILES>  (1) 
[H]N([H])CC(=O)CCC(=O)OCCCCCC

>  <SYNONYMS>  (1) 
4-Hexyloxycarbonyl-2-oxobutylammoniumchloride; Hexyl 5-amino-4-oxopentanoate hydrochloride; Hexyl(5-amino-4-oxopentanoat)-hydrochlorid; Pentanoic acid, 5-amino-4-oxo-, hexyl ester, hydrochloride

$$$$
