
     RDKit          2D

 63 65  0  0  1  0  0  0  0  0999 V2000
    5.5541    3.5789    0.0000 O   0  0  0  0  0  0  0  0  0  0  0  0
    4.5080   -1.9751    0.0000 O   0  0  0  0  0  0  0  0  0  0  0  0
    2.3645   -4.0376    0.0000 O   0  0  0  0  0  0  0  0  0  0  0  0
    1.6500   -2.8001    0.0000 O   0  0  0  0  0  0  0  0  0  0  0  0
    3.0791    0.5000    0.0000 N   0  0  0  0  0  0  0  0  0  0  0  0
    3.0791   -1.9751    0.0000 N   0  0  0  0  0  0  0  0  0  0  0  0
    3.0791    2.1500    0.0000 C   0  0  0  0  0  0  0  0  0  0  0  0
    2.3645    1.7375    0.0000 C   0  0  0  0  0  0  0  0  0  0  0  0
    3.7935    1.7375    0.0000 C   0  0  0  0  0  0  0  0  0  0  0  0
    2.3645    0.9125    0.0000 C   0  0  0  0  0  0  0  0  0  0  0  0
    3.7935    0.9125    0.0000 C   0  0  0  0  0  0  0  0  0  0  0  0
    3.4916    2.8645    0.0000 C   0  0  0  0  0  0  0  0  0  0  0  0
    2.6665    2.8645    0.0000 C   0  0  0  0  0  0  0  0  0  0  0  0
    1.6500    2.1500    0.0000 C   0  0  0  0  0  0  0  0  0  0  0  0
    3.0791   -0.3251    0.0000 C   0  0  0  0  0  0  0  0  0  0  0  0
    3.7935   -0.7376    0.0000 C   0  0  0  0  0  0  0  0  0  0  0  0
    4.3166    2.8645    0.0000 C   0  0  0  0  0  0  0  0  0  0  0  0
    3.0791    3.5789    0.0000 C   0  0  0  0  0  0  0  0  0  0  0  0
    4.5080   -0.3251    0.0000 C   0  0  0  0  0  0  0  0  0  0  0  0
    3.7935   -1.5626    0.0000 C   0  0  0  0  0  0  0  0  0  0  0  0
    4.7291    3.5789    0.0000 C   0  0  0  0  0  0  0  0  0  0  0  0
    3.4916    4.2934    0.0000 C   0  0  0  0  0  0  0  0  0  0  0  0
    4.3166    4.2934    0.0000 C   0  0  0  0  0  0  0  0  0  0  0  0
    5.2224   -0.7376    0.0000 C   0  0  0  0  0  0  0  0  0  0  0  0
    5.9370   -0.3251    0.0000 C   0  0  0  0  0  0  0  0  0  0  0  0
    5.2224   -1.5626    0.0000 C   0  0  0  0  0  0  0  0  0  0  0  0
    3.0791   -2.8001    0.0000 C   0  0  0  0  0  0  0  0  0  0  0  0
    6.6515   -0.7376    0.0000 C   0  0  0  0  0  0  0  0  0  0  0  0
    5.9370   -1.9751    0.0000 C   0  0  0  0  0  0  0  0  0  0  0  0
    6.6515   -1.5626    0.0000 C   0  0  0  0  0  0  0  0  0  0  0  0
    2.3645   -3.2126    0.0000 C   0  0  0  0  0  0  0  0  0  0  0  0
    0.0000    0.0000    0.0000 H   0  0  0  0  0  0  0  0  0  0  0  0
    0.0000    0.0000    0.0000 H   0  0  0  0  0  0  0  0  0  0  0  0
    0.0000    0.0000    0.0000 H   0  0  0  0  0  0  0  0  0  0  0  0
    0.0000    0.0000    0.0000 H   0  0  0  0  0  0  0  0  0  0  0  0
    0.0000    0.0000    0.0000 H   0  0  0  0  0  0  0  0  0  0  0  0
    0.0000    0.0000    0.0000 H   0  0  0  0  0  0  0  0  0  0  0  0
    0.0000    0.0000    0.0000 H   0  0  0  0  0  0  0  0  0  0  0  0
    0.0000    0.0000    0.0000 H   0  0  0  0  0  0  0  0  0  0  0  0
    0.0000    0.0000    0.0000 H   0  0  0  0  0  0  0  0  0  0  0  0
    0.0000    0.0000    0.0000 H   0  0  0  0  0  0  0  0  0  0  0  0
    0.0000    0.0000    0.0000 H   0  0  0  0  0  0  0  0  0  0  0  0
    0.0000    0.0000    0.0000 H   0  0  0  0  0  0  0  0  0  0  0  0
    0.0000    0.0000    0.0000 H   0  0  0  0  0  0  0  0  0  0  0  0
    0.0000    0.0000    0.0000 H   0  0  0  0  0  0  0  0  0  0  0  0
    0.0000    0.0000    0.0000 H   0  0  0  0  0  0  0  0  0  0  0  0
    0.0000    0.0000    0.0000 H   0  0  0  0  0  0  0  0  0  0  0  0
    0.0000    0.0000    0.0000 H   0  0  0  0  0  0  0  0  0  0  0  0
    0.0000    0.0000    0.0000 H   0  0  0  0  0  0  0  0  0  0  0  0
    0.0000    0.0000    0.0000 H   0  0  0  0  0  0  0  0  0  0  0  0
    0.0000    0.0000    0.0000 H   0  0  0  0  0  0  0  0  0  0  0  0
    0.0000    0.0000    0.0000 H   0  0  0  0  0  0  0  0  0  0  0  0
    0.0000    0.0000    0.0000 H   0  0  0  0  0  0  0  0  0  0  0  0
    0.0000    0.0000    0.0000 H   0  0  0  0  0  0  0  0  0  0  0  0
    0.0000    0.0000    0.0000 H   0  0  0  0  0  0  0  0  0  0  0  0
    0.0000    0.0000    0.0000 H   0  0  0  0  0  0  0  0  0  0  0  0
    0.0000    0.0000    0.0000 H   0  0  0  0  0  0  0  0  0  0  0  0
    0.0000    0.0000    0.0000 H   0  0  0  0  0  0  0  0  0  0  0  0
    0.0000    0.0000    0.0000 H   0  0  0  0  0  0  0  0  0  0  0  0
    0.0000    0.0000    0.0000 H   0  0  0  0  0  0  0  0  0  0  0  0
    0.0000    0.0000    0.0000 H   0  0  0  0  0  0  0  0  0  0  0  0
    0.0000    0.0000    0.0000 H   0  0  0  0  0  0  0  0  0  0  0  0
    0.0000    0.0000    0.0000 H   0  0  0  0  0  0  0  0  0  0  0  0
  1 21  1  0
  2 20  2  0
  3 31  1  0
  4 31  2  0
  5 10  1  0
  5 11  1  0
  5 15  1  0
  6 20  1  0
  6 27  1  0
  7  8  1  0
  7  9  1  0
  7 12  1  6
  7 13  1  0
  8 10  1  0
  8 14  1  6
  9 11  1  0
 12 17  2  0
 12 18  1  0
 16 15  1  6
 16 19  1  0
 16 20  1  0
 17 21  1  0
 18 22  2  0
 19 24  1  0
 21 23  2  0
 22 23  1  0
 24 25  2  0
 24 26  1  0
 25 28  1  0
 26 29  2  0
 27 31  1  0
 28 30  2  0
 29 30  1  0
  1 32  1  0
  3 33  1  0
  6 34  1  0
  8 35  1  0
  9 36  1  0
  9 37  1  0
 10 38  1  0
 10 39  1  0
 11 40  1  0
 11 41  1  0
 13 42  1  0
 13 43  1  0
 13 44  1  0
 14 45  1  0
 14 46  1  0
 14 47  1  0
 15 48  1  0
 15 49  1  0
 16 50  1  0
 17 51  1  0
 18 52  1  0
 19 53  1  0
 19 54  1  0
 22 55  1  0
 23 56  1  0
 25 57  1  0
 26 58  1  0
 27 59  1  0
 27 60  1  0
 28 61  1  0
 29 62  1  0
 30 63  1  0
M  END
>  <ALOGPS_LOGP>  (1) 
3.25

>  <ALOGPS_LOGS>  (1) 
-4.71

>  <ALOGPS_SOLUBILITY>  (1) 
8.34e-03 g/l

>  <DATABASE_ID>  (1) 
DB06274

>  <DATABASE_NAME>  (1) 
drugbank

>  <DRUGBANK_ID>  (1) 
DB06274

>  <DRUG_GROUPS>  (1) 
approved

>  <EXACT_MASS>  (1) 
424.236207522

>  <FORMULA>  (1) 
C25H32N2O4

>  <GENERIC_NAME>  (1) 
Alvimopan

>  <INCHI_IDENTIFIER>  (1) 
InChI=1S/C25H32N2O4/c1-18-16-27(12-11-25(18,2)21-9-6-10-22(28)14-21)17-20(24(31)26-15-23(29)30)13-19-7-4-3-5-8-19/h3-10,14,18,20,28H,11-13,15-17H2,1-2H3,(H,26,31)(H,29,30)/t18-,20-,25+/m0/s1

>  <INCHI_KEY>  (1) 
UPNUIXSCZBYVBB-JVFUWBCBSA-N

>  <JCHEM_ACCEPTOR_COUNT>  (1) 
5

>  <JCHEM_AVERAGE_POLARIZABILITY>  (1) 
46.77327562863968

>  <JCHEM_BIOAVAILABILITY>  (1) 
1

>  <JCHEM_DONOR_COUNT>  (1) 
3

>  <JCHEM_FORMAL_CHARGE>  (1) 
0

>  <JCHEM_GHOSE_FILTER>  (1) 
1

>  <JCHEM_IUPAC>  (1) 
2-[(2S)-2-benzyl-3-[(3R,4R)-4-(3-hydroxyphenyl)-3,4-dimethylpiperidin-1-yl]propanamido]acetic acid

>  <JCHEM_LOGP>  (1) 
0.8221535913906884

>  <JCHEM_MDDR_LIKE_RULE>  (1) 
1

>  <JCHEM_NUMBER_OF_RINGS>  (1) 
3

>  <JCHEM_PHYSIOLOGICAL_CHARGE>  (1) 
0

>  <JCHEM_PKA>  (1) 
9.747830001391664

>  <JCHEM_PKA_STRONGEST_ACIDIC>  (1) 
3.7093873384880482

>  <JCHEM_PKA_STRONGEST_BASIC>  (1) 
10.664563055671838

>  <JCHEM_POLAR_SURFACE_AREA>  (1) 
89.86999999999999

>  <JCHEM_REFRACTIVITY>  (1) 
120.55930000000001

>  <JCHEM_ROTATABLE_BOND_COUNT>  (1) 
8

>  <JCHEM_RULE_OF_FIVE>  (1) 
1

>  <JCHEM_TRADITIONAL_IUPAC>  (1) 
alvimopan

>  <JCHEM_VEBER_RULE>  (1) 
0

>  <MOLECULAR_WEIGHT>  (1) 
424.5326

>  <PRODUCTS>  (1) 
Entereg

>  <SALTS>  (1) 
Alvimopan dihydrate

>  <SMILES>  (1) 
C[C@H]1CN(C[C@H](CC2=CC=CC=C2)C(=O)NCC(O)=O)CC[C@@]1(C)C1=CC(O)=CC=C1

>  <SYNONYMS>  (1) 
Alvimopan anhydrous; Anhydrous alvimopan

$$$$
