
     RDKit          2D

 53 55  0  0  0  0  0  0  0  0999 V2000
   -3.5724   -2.8875    0.0000 C   0  0  0  0  0  0  0  0  0  0  0  0
   -2.8579   -2.4749    0.0000 N   0  0  0  0  0  0  0  0  0  0  0  0
   -2.8579   -1.6500    0.0000 C   0  0  0  0  0  0  0  0  0  0  0  0
   -3.5724   -1.2374    0.0000 O   0  0  0  0  0  0  0  0  0  0  0  0
   -2.1434   -1.2374    0.0000 C   0  0  0  0  0  0  0  0  0  0  0  0
   -2.1434   -0.4125    0.0000 O   0  0  0  0  0  0  0  0  0  0  0  0
   -1.4289   -1.6500    0.0000 C   0  0  0  0  0  0  0  0  0  0  0  0
   -1.4289   -2.4749    0.0000 N   0  0  0  0  0  0  0  0  0  0  0  0
   -2.1434   -2.8875    0.0000 C   0  0  0  0  0  0  0  0  0  0  0  0
   -2.1434   -3.7125    0.0000 C   0  0  0  0  0  0  0  0  0  0  0  0
   -1.3184   -3.7125    0.0000 C   0  0  0  0  0  0  0  0  0  0  0  0
   -2.9684   -3.7125    0.0000 C   0  0  0  0  0  0  0  0  0  0  0  0
   -2.1434   -4.5375    0.0000 N   0  0  0  0  0  0  0  0  0  0  0  0
   -2.8579   -4.9499    0.0000 C   0  0  0  0  0  0  0  0  0  0  0  0
   -3.5724   -4.5375    0.0000 O   0  0  0  0  0  0  0  0  0  0  0  0
   -2.8579   -5.7750    0.0000 C   0  0  0  0  0  0  0  0  0  0  0  0
   -2.1904   -6.2599    0.0000 N   0  0  0  0  0  0  0  0  0  0  0  0
   -2.4453   -7.0445    0.0000 N   0  0  0  0  0  0  0  0  0  0  0  0
   -3.2704   -7.0445    0.0000 C   0  0  0  0  0  0  0  0  0  0  0  0
   -3.7553   -7.7120    0.0000 C   0  0  0  0  0  0  0  0  0  0  0  0
   -3.5253   -6.2599    0.0000 O   0  0  0  0  0  0  0  0  0  0  0  0
   -0.7145   -1.2374    0.0000 C   0  0  0  0  0  0  0  0  0  0  0  0
   -0.7145   -0.4125    0.0000 O   0  0  0  0  0  0  0  0  0  0  0  0
    0.0000   -1.6500    0.0000 N   0  0  0  0  0  0  0  0  0  0  0  0
    0.7145   -1.2374    0.0000 C   0  0  0  0  0  0  0  0  0  0  0  0
    0.7145   -0.4125    0.0000 C   0  0  0  0  0  0  0  0  0  0  0  0
    0.0000    0.0000    0.0000 C   0  0  0  0  0  0  0  0  0  0  0  0
    0.0000    0.8250    0.0000 C   0  0  0  0  0  0  0  0  0  0  0  0
    0.7145    1.2374    0.0000 C   0  0  0  0  0  0  0  0  0  0  0  0
    0.7145    2.0625    0.0000 F   0  0  0  0  0  0  0  0  0  0  0  0
    1.4289    0.8250    0.0000 C   0  0  0  0  0  0  0  0  0  0  0  0
    1.4289    0.0000    0.0000 C   0  0  0  0  0  0  0  0  0  0  0  0
    0.0000    0.0000    0.0000 H   0  0  0  0  0  0  0  0  0  0  0  0
    0.0000    0.0000    0.0000 H   0  0  0  0  0  0  0  0  0  0  0  0
    0.0000    0.0000    0.0000 H   0  0  0  0  0  0  0  0  0  0  0  0
    0.0000    0.0000    0.0000 H   0  0  0  0  0  0  0  0  0  0  0  0
    0.0000    0.0000    0.0000 H   0  0  0  0  0  0  0  0  0  0  0  0
    0.0000    0.0000    0.0000 H   0  0  0  0  0  0  0  0  0  0  0  0
    0.0000    0.0000    0.0000 H   0  0  0  0  0  0  0  0  0  0  0  0
    0.0000    0.0000    0.0000 H   0  0  0  0  0  0  0  0  0  0  0  0
    0.0000    0.0000    0.0000 H   0  0  0  0  0  0  0  0  0  0  0  0
    0.0000    0.0000    0.0000 H   0  0  0  0  0  0  0  0  0  0  0  0
    0.0000    0.0000    0.0000 H   0  0  0  0  0  0  0  0  0  0  0  0
    0.0000    0.0000    0.0000 H   0  0  0  0  0  0  0  0  0  0  0  0
    0.0000    0.0000    0.0000 H   0  0  0  0  0  0  0  0  0  0  0  0
    0.0000    0.0000    0.0000 H   0  0  0  0  0  0  0  0  0  0  0  0
    0.0000    0.0000    0.0000 H   0  0  0  0  0  0  0  0  0  0  0  0
    0.0000    0.0000    0.0000 H   0  0  0  0  0  0  0  0  0  0  0  0
    0.0000    0.0000    0.0000 H   0  0  0  0  0  0  0  0  0  0  0  0
    0.0000    0.0000    0.0000 H   0  0  0  0  0  0  0  0  0  0  0  0
    0.0000    0.0000    0.0000 H   0  0  0  0  0  0  0  0  0  0  0  0
    0.0000    0.0000    0.0000 H   0  0  0  0  0  0  0  0  0  0  0  0
    0.0000    0.0000    0.0000 H   0  0  0  0  0  0  0  0  0  0  0  0
  1  2  1  0
  2  3  1  0
  3  4  2  0
  3  5  1  0
  5  6  1  0
  5  7  2  0
  7  8  1  0
  8  9  2  0
  2  9  1  0
  9 10  1  0
 10 11  1  0
 10 12  1  0
 10 13  1  0
 13 14  1  0
 14 15  2  0
 14 16  1  0
 16 17  2  0
 17 18  1  0
 18 19  2  0
 19 20  1  0
 19 21  1  0
 16 21  1  0
  7 22  1  0
 22 23  2  0
 22 24  1  0
 24 25  1  0
 25 26  1  0
 26 27  2  0
 27 28  1  0
 28 29  2  0
 29 30  1  0
 29 31  1  0
 31 32  2  0
 26 32  1  0
  1 33  1  0
  1 34  1  0
  1 35  1  0
  6 36  1  0
 11 37  1  0
 11 38  1  0
 11 39  1  0
 12 40  1  0
 12 41  1  0
 12 42  1  0
 13 43  1  0
 20 44  1  0
 20 45  1  0
 20 46  1  0
 24 47  1  0
 25 48  1  0
 25 49  1  0
 27 50  1  0
 28 51  1  0
 31 52  1  0
 32 53  1  0
M  END
>  <DATABASE_ID>  (1) 
DB06817

>  <DATABASE_NAME>  (1) 
drugbank

>  <DRUGBANK_ID>  (1) 
DB06817

>  <DRUG_GROUPS>  (1) 
approved

>  <EXACT_MASS>  (1) 
444.155746017

>  <FORMULA>  (1) 
C20H21FN6O5

>  <GENERIC_NAME>  (1) 
Raltegravir

>  <INCHI_IDENTIFIER>  (1) 
InChI=1S/C20H21FN6O5/c1-10-25-26-17(32-10)16(30)24-20(2,3)19-23-13(14(28)18(31)27(19)4)15(29)22-9-11-5-7-12(21)8-6-11/h5-8,28H,9H2,1-4H3,(H,22,29)(H,24,30)

>  <INCHI_KEY>  (1) 
CZFFBEXEKNGXKS-UHFFFAOYSA-N

>  <JCHEM_ACCEPTOR_COUNT>  (1) 
7

>  <JCHEM_AVERAGE_POLARIZABILITY>  (1) 
42.465830125440235

>  <JCHEM_BIOAVAILABILITY>  (1) 
1

>  <JCHEM_DONOR_COUNT>  (1) 
3

>  <JCHEM_FORMAL_CHARGE>  (1) 
0

>  <JCHEM_GHOSE_FILTER>  (1) 
1

>  <JCHEM_IUPAC>  (1) 
N-[(4-fluorophenyl)methyl]-5-hydroxy-1-methyl-2-{2-[(5-methyl-1,3,4-oxadiazol-2-yl)formamido]propan-2-yl}-6-oxo-1,6-dihydropyrimidine-4-carboxamide

>  <JCHEM_LOGP>  (1) 
-0.3882265613333336

>  <JCHEM_MDDR_LIKE_RULE>  (1) 
1

>  <JCHEM_NUMBER_OF_RINGS>  (1) 
3

>  <JCHEM_PHYSIOLOGICAL_CHARGE>  (1) 
-1

>  <JCHEM_PKA>  (1) 
12.154755568024907

>  <JCHEM_PKA_STRONGEST_ACIDIC>  (1) 
5.617113948405954

>  <JCHEM_PKA_STRONGEST_BASIC>  (1) 
-1.4968036990609659

>  <JCHEM_POLAR_SURFACE_AREA>  (1) 
150.02

>  <JCHEM_REFRACTIVITY>  (1) 
112.59169999999999

>  <JCHEM_ROTATABLE_BOND_COUNT>  (1) 
6

>  <JCHEM_RULE_OF_FIVE>  (1) 
1

>  <JCHEM_TRADITIONAL_IUPAC>  (1) 
raltegravir

>  <JCHEM_VEBER_RULE>  (1) 
0

>  <MOLECULAR_WEIGHT>  (1) 
444.4163

>  <PRODUCTS>  (1) 
Dutrebis; Isentress; Isentress Hd

>  <SALTS>  (1) 
Raltegravir potassium

>  <SECONDARY_ACCESSION_NUMBERS>  (1) 
DB05355

>  <SMILES>  (1) 
CN1C(=O)C(O)=C(N=C1C(C)(C)NC(=O)C1=NN=C(C)O1)C(=O)NCC1=CC=C(F)C=C1

$$$$
