
     RDKit          2D

 43 45  0  0  0  0  0  0  0  0999 V2000
    0.0000   -0.4124    0.0000 C   0  0  0  0  0  0  0  0  0  0  0  0
    0.0000    0.4126    0.0000 C   0  0  0  0  0  0  0  0  0  0  0  0
   -0.7126   -0.8251    0.0000 C   0  0  0  0  0  0  0  0  0  0  0  0
   -0.7126    0.8251    0.0000 C   0  0  0  0  0  0  0  0  0  0  0  0
   -1.4294   -0.4124    0.0000 C   0  0  0  0  0  0  0  0  0  0  0  0
   -1.4294    0.4126    0.0000 C   0  0  0  0  0  0  0  0  0  0  0  0
    0.7167   -0.8251    0.0000 C   0  0  0  0  0  0  0  0  0  0  0  0
    0.7167    0.8251    0.0000 C   0  0  0  0  0  0  0  0  0  0  0  0
   -0.7126   -1.6501    0.0000 O   0  0  0  0  0  0  0  0  0  0  0  0
   -0.7126    1.6502    0.0000 O   0  0  0  0  0  0  0  0  0  0  0  0
   -2.8586   -0.4124    0.0000 N   0  0  0  0  0  0  0  0  0  0  0  0
    1.4293    0.4126    0.0000 C   0  0  0  0  0  0  0  0  0  0  0  0
    1.4293   -0.4124    0.0000 C   0  0  0  0  0  0  0  0  0  0  0  0
   -2.1420   -0.8251    0.0000 C   0  0  0  0  0  0  0  0  0  0  0  0
    0.7167   -1.6501    0.0000 N   0  0  0  0  0  0  0  0  0  0  0  0
    0.7167    1.6502    0.0000 N   0  0  0  0  0  0  0  0  0  0  0  0
   -2.1420    0.8251    0.0000 C   0  0  0  0  0  0  0  0  0  0  0  0
    2.8586    2.0628    0.0000 N   0  0  0  0  0  0  0  0  0  0  0  0
    2.8586   -2.0628    0.0000 N   0  0  0  0  0  0  0  0  0  0  0  0
   -2.8586    0.4126    0.0000 C   0  0  0  0  0  0  0  0  0  0  0  0
    1.4293   -2.0628    0.0000 C   0  0  0  0  0  0  0  0  0  0  0  0
    1.4293    2.0628    0.0000 C   0  0  0  0  0  0  0  0  0  0  0  0
    2.1460   -1.6501    0.0000 C   0  0  0  0  0  0  0  0  0  0  0  0
    2.1460    1.6502    0.0000 C   0  0  0  0  0  0  0  0  0  0  0  0
    0.0000    0.0000    0.0000 H   0  0  0  0  0  0  0  0  0  0  0  0
    0.0000    0.0000    0.0000 H   0  0  0  0  0  0  0  0  0  0  0  0
    0.0000    0.0000    0.0000 H   0  0  0  0  0  0  0  0  0  0  0  0
    0.0000    0.0000    0.0000 H   0  0  0  0  0  0  0  0  0  0  0  0
    0.0000    0.0000    0.0000 H   0  0  0  0  0  0  0  0  0  0  0  0
    0.0000    0.0000    0.0000 H   0  0  0  0  0  0  0  0  0  0  0  0
    0.0000    0.0000    0.0000 H   0  0  0  0  0  0  0  0  0  0  0  0
    0.0000    0.0000    0.0000 H   0  0  0  0  0  0  0  0  0  0  0  0
    0.0000    0.0000    0.0000 H   0  0  0  0  0  0  0  0  0  0  0  0
    0.0000    0.0000    0.0000 H   0  0  0  0  0  0  0  0  0  0  0  0
    0.0000    0.0000    0.0000 H   0  0  0  0  0  0  0  0  0  0  0  0
    0.0000    0.0000    0.0000 H   0  0  0  0  0  0  0  0  0  0  0  0
    0.0000    0.0000    0.0000 H   0  0  0  0  0  0  0  0  0  0  0  0
    0.0000    0.0000    0.0000 H   0  0  0  0  0  0  0  0  0  0  0  0
    0.0000    0.0000    0.0000 H   0  0  0  0  0  0  0  0  0  0  0  0
    0.0000    0.0000    0.0000 H   0  0  0  0  0  0  0  0  0  0  0  0
    0.0000    0.0000    0.0000 H   0  0  0  0  0  0  0  0  0  0  0  0
    0.0000    0.0000    0.0000 H   0  0  0  0  0  0  0  0  0  0  0  0
    0.0000    0.0000    0.0000 H   0  0  0  0  0  0  0  0  0  0  0  0
 16  8  1  0
 17  6  1  0
 18 24  1  0
 19 23  1  0
 20 17  2  0
 21 15  1  0
 22 16  1  0
 23 21  1  0
 24 22  1  0
  8 12  2  0
  6  5  2  0
 11 20  1  0
  2  1  2  0
  3  1  1  0
  4  2  1  0
  5  3  1  0
  6  4  1  0
  7  1  1  0
  8  2  1  0
  9  3  2  0
 10  4  2  0
 11 14  2  0
 12 13  1  0
 13  7  2  0
 14  5  1  0
 15  7  1  0
 12 25  1  0
 13 26  1  0
 14 27  1  0
 15 28  1  0
 16 29  1  0
 17 30  1  0
 18 31  1  0
 18 32  1  0
 19 33  1  0
 19 34  1  0
 20 35  1  0
 21 36  1  0
 21 37  1  0
 22 38  1  0
 22 39  1  0
 23 40  1  0
 23 41  1  0
 24 42  1  0
 24 43  1  0
M  END
>  <ALOGPS_LOGP>  (1) 
0.57

>  <ALOGPS_LOGS>  (1) 
-2.82

>  <ALOGPS_SOLUBILITY>  (1) 
4.94e-01 g/l

>  <DATABASE_ID>  (1) 
DB06193

>  <DATABASE_NAME>  (1) 
drugbank

>  <DRUGBANK_ID>  (1) 
DB06193

>  <DRUG_GROUPS>  (1) 
approved; investigational

>  <EXACT_MASS>  (1) 
325.153874872

>  <FORMULA>  (1) 
C17H19N5O2

>  <GENERIC_NAME>  (1) 
Pixantrone

>  <INCHI_IDENTIFIER>  (1) 
InChI=1S/C17H19N5O2/c18-4-7-21-12-1-2-13(22-8-5-19)15-14(12)16(23)10-3-6-20-9-11(10)17(15)24/h1-3,6,9,21-22H,4-5,7-8,18-19H2

>  <INCHI_KEY>  (1) 
PEZPMAYDXJQYRV-UHFFFAOYSA-N

>  <INTERNATIONAL_BRANDS>  (1) 
Pixuvri

>  <JCHEM_ACCEPTOR_COUNT>  (1) 
7

>  <JCHEM_ATOM_COUNT>  (1) 
43

>  <JCHEM_AVERAGE_POLARIZABILITY>  (1) 
35.09483769419404

>  <JCHEM_BIOAVAILABILITY>  (1) 
1

>  <JCHEM_DONOR_COUNT>  (1) 
4

>  <JCHEM_FORMAL_CHARGE>  (1) 
0

>  <JCHEM_GHOSE_FILTER>  (1) 
1

>  <JCHEM_IUPAC>  (1) 
6,9-bis[(2-aminoethyl)amino]-5H,10H-benzo[g]isoquinoline-5,10-dione

>  <JCHEM_LOGP>  (1) 
0.35262228500000015

>  <JCHEM_MDDR_LIKE_RULE>  (1) 
1

>  <JCHEM_NUMBER_OF_RINGS>  (1) 
3

>  <JCHEM_PHYSIOLOGICAL_CHARGE>  (1) 
2

>  <JCHEM_PKA_STRONGEST_BASIC>  (1) 
9.517440127346822

>  <JCHEM_POLAR_SURFACE_AREA>  (1) 
123.13

>  <JCHEM_REFRACTIVITY>  (1) 
95.28129999999999

>  <JCHEM_ROTATABLE_BOND_COUNT>  (1) 
6

>  <JCHEM_RULE_OF_FIVE>  (1) 
1

>  <JCHEM_TRADITIONAL_IUPAC>  (1) 
pixantrone

>  <JCHEM_VEBER_RULE>  (1) 
0

>  <MOLECULAR_WEIGHT>  (1) 
325.372

>  <PRODUCTS>  (1) 
Pixuvri

>  <SALTS>  (1) 
Pixantrone dimaleate

>  <SMILES>  (1) 
NCCNC1=CC=C(NCCN)C2=C1C(=O)C1=C(C=NC=C1)C2=O

>  <SYNONYMS>  (1) 
6,9-bis((2-aminoethyl)amino)benzo(g)isoquinoline-5,10-dione

$$$$
