
     RDKit          2D

 14  9  0  0  0  0  0  0  0  0999 V2000
   -0.5500   -1.4290    0.0000 La  0  0  0  0  0  0  0  0  0  0  0  0
   -0.5500    1.4290    0.0000 La  0  0  0  0  0  0  0  0  0  0  0  0
   -0.1375   -0.7145    0.0000 O   0  0  0  0  0  0  0  0  0  0  0  0
   -0.1375    0.7145    0.0000 O   0  0  0  0  0  0  0  0  0  0  0  0
    3.3394   -0.7145    0.0000 O   0  0  0  0  0  0  0  0  0  0  0  0
    3.3394    0.7145    0.0000 O   0  0  0  0  0  0  0  0  0  0  0  0
   -0.4125   -4.5081    0.0000 O   0  0  0  0  0  0  0  0  0  0  0  0
   -0.4125   -3.0791    0.0000 O   0  0  0  0  0  0  0  0  0  0  0  0
    1.1001    0.0000    0.0000 O   0  0  0  0  0  0  0  0  0  0  0  0
    4.5770    0.0000    0.0000 O   0  0  0  0  0  0  0  0  0  0  0  0
    0.8251   -3.7937    0.0000 O   0  0  0  0  0  0  0  0  0  0  0  0
    0.2750    0.0000    0.0000 C   0  0  0  0  0  0  0  0  0  0  0  0
    3.7520    0.0000    0.0000 C   0  0  0  0  0  0  0  0  0  0  0  0
    0.0000   -3.7937    0.0000 C   0  0  0  0  0  0  0  0  0  0  0  0
  3 12  1  0
  4 12  1  0
  5 13  1  0
  6 13  1  0
  7 14  1  0
  8 14  1  0
  9 12  2  0
 10 13  2  0
 11 14  2  0
M  CHG  8   1   3   2   3   3  -1   4  -1   5  -1   6  -1   7  -1   8  -1
M  END
>  <ALOGPS_LOGP>  (1) 
0.65

>  <ALOGPS_LOGS>  (1) 
-1.17

>  <ALOGPS_SOLUBILITY>  (1) 
3.10e+01 g/l

>  <DATABASE_ID>  (1) 
DB06792

>  <DATABASE_NAME>  (1) 
drugbank

>  <DRUGBANK_ID>  (1) 
DB06792

>  <DRUG_GROUPS>  (1) 
approved

>  <EXACT_MASS>  (1) 
457.76695

>  <FORMULA>  (1) 
C3La2O9

>  <GENERIC_NAME>  (1) 
Lanthanum carbonate

>  <INCHI_IDENTIFIER>  (1) 
InChI=1S/3CH2O3.2La/c3*2-1(3)4;;/h3*(H2,2,3,4);;/q;;;2*+3/p-6

>  <INCHI_KEY>  (1) 
NZPIUJUFIFZSPW-UHFFFAOYSA-H

>  <INTERNATIONAL_BRANDS>  (1) 
Foznol; Phosbloc

>  <JCHEM_ACCEPTOR_COUNT>  (1) 
3

>  <JCHEM_ATOM_COUNT>  (1) 
14

>  <JCHEM_AVERAGE_POLARIZABILITY>  (1) 
3.515525686064488

>  <JCHEM_BIOAVAILABILITY>  (1) 
1

>  <JCHEM_DONOR_COUNT>  (1) 
0

>  <JCHEM_FORMAL_CHARGE>  (1) 
0

>  <JCHEM_GHOSE_FILTER>  (1) 
0

>  <JCHEM_IUPAC>  (1) 
dilanthanum(3+) ion tricarbonate

>  <JCHEM_LOGP>  (1) 
0.25005136566666664

>  <JCHEM_MDDR_LIKE_RULE>  (1) 
0

>  <JCHEM_NUMBER_OF_RINGS>  (1) 
0

>  <JCHEM_PHYSIOLOGICAL_CHARGE>  (1) 
-1

>  <JCHEM_PKA>  (1) 
10.638414228618219

>  <JCHEM_PKA_STRONGEST_ACIDIC>  (1) 
6.052541895520343

>  <JCHEM_POLAR_SURFACE_AREA>  (1) 
63.19

>  <JCHEM_REFRACTIVITY>  (1) 
31.172400000000003

>  <JCHEM_ROTATABLE_BOND_COUNT>  (1) 
0

>  <JCHEM_RULE_OF_FIVE>  (1) 
1

>  <JCHEM_TRADITIONAL_IUPAC>  (1) 
dilanthanum(3+) ion tricarbonate

>  <JCHEM_VEBER_RULE>  (1) 
0

>  <MOLECULAR_WEIGHT>  (1) 
457.835

>  <PRODUCTS>  (1) 
Fosrenol; Lanthanum Carbonate; Lanthanum carbonate

>  <SALTS>  (1) 
Lanthanum carbonate hydrate

>  <SMILES>  (1) 
[La+3].[La+3].[O-]C([O-])=O.[O-]C([O-])=O.[O-]C([O-])=O

>  <SYNONYMS>  (1) 
Lanthanum (III) carbonate; Lanthanum carbonate anhydrous; Lanthanum sesquicarbonate; Lanthanum(3+) carbonate

$$$$
