
     RDKit          2D

 68 71  0  0  1  0  0  0  0  0999 V2000
   12.1249   -7.6292    0.0000 C   0  0  0  0  0  0  0  0  0  0  0  0
   12.1249   -8.4368    0.0000 C   0  0  0  0  0  0  0  0  0  0  0  0
   10.6963   -8.4368    0.0000 C   0  0  0  0  0  0  0  0  0  0  0  0
   11.4261   -8.8327    0.0000 C   0  0  0  0  0  0  0  0  0  0  0  0
    9.9820   -8.8327    0.0000 C   0  0  0  0  0  0  0  0  0  0  0  0
   12.9091   -7.3730    0.0000 C   0  0  0  0  0  0  0  0  0  0  0  0
   11.4261   -7.2100    0.0000 C   0  0  0  0  0  0  0  0  0  0  0  0
   10.6963   -7.6292    0.0000 C   0  0  0  0  0  0  0  0  0  0  0  0
   12.9091   -8.6930    0.0000 C   0  0  0  0  0  0  0  0  0  0  0  0
   13.3750   -8.0408    0.0000 C   0  0  0  0  0  0  0  0  0  0  0  0
   11.4261   -9.6712    0.0000 C   0  0  0  0  0  0  0  0  0  0  0  0
    9.9820   -9.6712    0.0000 C   0  0  0  0  0  0  0  0  0  0  0  0
   10.6963  -10.0827    0.0000 C   0  0  0  0  0  0  0  0  0  0  0  0
   12.9091   -6.5268    0.0000 C   0  0  0  0  0  0  0  0  0  0  0  0
   12.1249   -6.7829    0.0000 C   0  0  0  0  0  0  0  0  0  0  0  0
    9.9820   -8.0252    0.0000 C   0  0  0  0  0  0  0  0  0  0  0  0
    9.2832   -8.4368    0.0000 C   0  0  0  0  0  0  0  0  0  0  0  0
   14.3454   -6.5034    0.0000 C   0  0  0  0  0  0  0  0  0  0  0  0
   13.6390   -6.0997    0.0000 C   0  0  0  0  0  0  0  0  0  0  0  0
    9.2832  -10.0827    0.0000 C   0  0  0  0  0  0  0  0  0  0  0  0
   12.1560   -5.8815    0.0000 C   0  0  0  0  0  0  0  0  0  0  0  0
   15.0520   -6.0764    0.0000 C   0  0  0  0  0  0  0  0  0  0  0  0
    8.5612   -8.8395    0.0000 C   0  0  0  0  0  0  0  0  0  0  0  0
    8.5612   -9.6644    0.0000 C   0  0  0  0  0  0  0  0  0  0  0  0
   15.7802   -6.6071    0.0000 O   0  0  0  0  0  0  0  0  0  0  0  0
   15.1752   -5.3559    0.0000 O   0  0  0  0  0  0  0  0  0  0  0  0
    7.9818   -9.9500    0.0000 O   0  0  0  0  0  0  0  0  0  0  0  0
   11.9976   -9.8804    0.0000 O   0  0  0  0  0  0  0  0  0  0  0  0
    0.0000    0.0000    0.0000 H   0  0  0  0  0  0  0  0  0  0  0  0
    0.0000    0.0000    0.0000 H   0  0  0  0  0  0  0  0  0  0  0  0
    0.0000    0.0000    0.0000 H   0  0  0  0  0  0  0  0  0  0  0  0
    0.0000    0.0000    0.0000 H   0  0  0  0  0  0  0  0  0  0  0  0
    0.0000    0.0000    0.0000 H   0  0  0  0  0  0  0  0  0  0  0  0
    0.0000    0.0000    0.0000 H   0  0  0  0  0  0  0  0  0  0  0  0
    0.0000    0.0000    0.0000 H   0  0  0  0  0  0  0  0  0  0  0  0
    0.0000    0.0000    0.0000 H   0  0  0  0  0  0  0  0  0  0  0  0
    0.0000    0.0000    0.0000 H   0  0  0  0  0  0  0  0  0  0  0  0
    0.0000    0.0000    0.0000 H   0  0  0  0  0  0  0  0  0  0  0  0
    0.0000    0.0000    0.0000 H   0  0  0  0  0  0  0  0  0  0  0  0
    0.0000    0.0000    0.0000 H   0  0  0  0  0  0  0  0  0  0  0  0
    0.0000    0.0000    0.0000 H   0  0  0  0  0  0  0  0  0  0  0  0
    0.0000    0.0000    0.0000 H   0  0  0  0  0  0  0  0  0  0  0  0
    0.0000    0.0000    0.0000 H   0  0  0  0  0  0  0  0  0  0  0  0
    0.0000    0.0000    0.0000 H   0  0  0  0  0  0  0  0  0  0  0  0
    0.0000    0.0000    0.0000 H   0  0  0  0  0  0  0  0  0  0  0  0
    0.0000    0.0000    0.0000 H   0  0  0  0  0  0  0  0  0  0  0  0
    0.0000    0.0000    0.0000 H   0  0  0  0  0  0  0  0  0  0  0  0
    0.0000    0.0000    0.0000 H   0  0  0  0  0  0  0  0  0  0  0  0
    0.0000    0.0000    0.0000 H   0  0  0  0  0  0  0  0  0  0  0  0
    0.0000    0.0000    0.0000 H   0  0  0  0  0  0  0  0  0  0  0  0
    0.0000    0.0000    0.0000 H   0  0  0  0  0  0  0  0  0  0  0  0
    0.0000    0.0000    0.0000 H   0  0  0  0  0  0  0  0  0  0  0  0
    0.0000    0.0000    0.0000 H   0  0  0  0  0  0  0  0  0  0  0  0
    0.0000    0.0000    0.0000 H   0  0  0  0  0  0  0  0  0  0  0  0
    0.0000    0.0000    0.0000 H   0  0  0  0  0  0  0  0  0  0  0  0
    0.0000    0.0000    0.0000 H   0  0  0  0  0  0  0  0  0  0  0  0
    0.0000    0.0000    0.0000 H   0  0  0  0  0  0  0  0  0  0  0  0
    0.0000    0.0000    0.0000 H   0  0  0  0  0  0  0  0  0  0  0  0
    0.0000    0.0000    0.0000 H   0  0  0  0  0  0  0  0  0  0  0  0
    0.0000    0.0000    0.0000 H   0  0  0  0  0  0  0  0  0  0  0  0
    0.0000    0.0000    0.0000 H   0  0  0  0  0  0  0  0  0  0  0  0
    0.0000    0.0000    0.0000 H   0  0  0  0  0  0  0  0  0  0  0  0
    0.0000    0.0000    0.0000 H   0  0  0  0  0  0  0  0  0  0  0  0
    0.0000    0.0000    0.0000 H   0  0  0  0  0  0  0  0  0  0  0  0
    0.0000    0.0000    0.0000 H   0  0  0  0  0  0  0  0  0  0  0  0
    0.0000    0.0000    0.0000 H   0  0  0  0  0  0  0  0  0  0  0  0
    0.0000    0.0000    0.0000 H   0  0  0  0  0  0  0  0  0  0  0  0
    0.0000    0.0000    0.0000 H   0  0  0  0  0  0  0  0  0  0  0  0
  2  1  1  0
  6  1  1  0
  7  1  1  0
  1 15  1  1
  4  2  1  0
  9  2  1  0
  8  3  1  0
  5  3  1  0
  4  3  1  0
 11  4  1  0
 12  5  1  0
  5 16  1  1
 17  5  1  0
 10  6  1  0
 14  6  1  0
  8  7  1  0
 10  9  1  0
 13 11  1  0
 20 12  1  0
 13 12  1  0
 14 19  1  1
 14 21  1  0
 23 17  1  0
 19 18  1  0
 22 18  1  0
 24 20  1  0
 24 23  1  0
 25 22  2  0
 26 22  1  0
 24 27  1  6
 11 28  1  1
  2 29  1  6
  3 30  1  6
  4 31  1  1
  6 32  1  6
  7 33  1  0
  7 34  1  0
  8 35  1  0
  8 36  1  0
  9 37  1  0
  9 38  1  0
 10 39  1  0
 10 40  1  0
 11 41  1  0
 12 42  1  1
 13 43  1  0
 13 44  1  0
 14 45  1  0
 15 46  1  0
 15 47  1  0
 15 48  1  0
 16 49  1  0
 16 50  1  0
 16 51  1  0
 17 52  1  0
 17 53  1  0
 18 54  1  0
 18 55  1  0
 19 56  1  0
 19 57  1  0
 20 58  1  0
 20 59  1  0
 21 60  1  0
 21 61  1  0
 21 62  1  0
 23 63  1  0
 23 64  1  0
 24 65  1  0
 26 66  1  0
 27 67  1  0
 28 68  1  0
M  END
>  <ALOGPS_LOGP>  (1) 
3.01

>  <ALOGPS_LOGS>  (1) 
-4.30

>  <ALOGPS_SOLUBILITY>  (1) 
1.97e-02 g/l

>  <DATABASE_ID>  (1) 
DB06777

>  <DATABASE_NAME>  (1) 
drugbank

>  <DRUGBANK_ID>  (1) 
DB06777

>  <DRUG_GROUPS>  (1) 
approved

>  <EXACT_MASS>  (1) 
392.292659768

>  <FORMULA>  (1) 
C24H40O4

>  <GENERIC_NAME>  (1) 
Chenodeoxycholic acid

>  <INCHI_IDENTIFIER>  (1) 
InChI=1S/C24H40O4/c1-14(4-7-21(27)28)17-5-6-18-22-19(9-11-24(17,18)3)23(2)10-8-16(25)12-15(23)13-20(22)26/h14-20,22,25-26H,4-13H2,1-3H3,(H,27,28)/t14-,15+,16-,17-,18+,19+,20-,22+,23+,24-/m1/s1

>  <INCHI_KEY>  (1) 
RUDATBOHQWOJDD-BSWAIDMHSA-N

>  <INTERNATIONAL_BRANDS>  (1) 
Chenix

>  <JCHEM_ACCEPTOR_COUNT>  (1) 
4

>  <JCHEM_AVERAGE_POLARIZABILITY>  (1) 
46.28235889992149

>  <JCHEM_BIOAVAILABILITY>  (1) 
1

>  <JCHEM_DONOR_COUNT>  (1) 
3

>  <JCHEM_FORMAL_CHARGE>  (1) 
0

>  <JCHEM_GHOSE_FILTER>  (1) 
1

>  <JCHEM_IUPAC>  (1) 
(4R)-4-[(1S,2S,5R,7S,9R,10R,11S,14R,15R)-5,9-dihydroxy-2,15-dimethyltetracyclo[8.7.0.0²,⁷.0¹¹,¹⁵]heptadecan-14-yl]pentanoic acid

>  <JCHEM_LOGP>  (1) 
3.7133055236666674

>  <JCHEM_MDDR_LIKE_RULE>  (1) 
0

>  <JCHEM_NUMBER_OF_RINGS>  (1) 
4

>  <JCHEM_PHYSIOLOGICAL_CHARGE>  (1) 
-1

>  <JCHEM_PKA>  (1) 
18.296339908541825

>  <JCHEM_PKA_STRONGEST_ACIDIC>  (1) 
4.595945733487658

>  <JCHEM_PKA_STRONGEST_BASIC>  (1) 
-0.5356636301705279

>  <JCHEM_POLAR_SURFACE_AREA>  (1) 
77.76

>  <JCHEM_REFRACTIVITY>  (1) 
109.27379999999997

>  <JCHEM_ROTATABLE_BOND_COUNT>  (1) 
4

>  <JCHEM_RULE_OF_FIVE>  (1) 
1

>  <JCHEM_TRADITIONAL_IUPAC>  (1) 
chenodeoxycholic acid

>  <JCHEM_VEBER_RULE>  (1) 
0

>  <MOLECULAR_WEIGHT>  (1) 
392.572

>  <PRODUCTS>  (1) 
Chenodal; Chenodiol

>  <SMILES>  (1) 
[H][C@@]1(CC[C@@]2([H])[C@]3([H])[C@H](O)C[C@]4([H])C[C@H](O)CC[C@]4(C)[C@@]3([H])CC[C@]12C)[C@H](C)CCC(O)=O

$$$$
