
     RDKit          2D

 72 73  0  0  1  0  0  0  0  0999 V2000
    5.9887   -0.0442    0.0000 C   0  0  0  0  0  0  0  0  0  0  0  0
    0.0095    2.5256    0.0000 C   0  0  0  0  0  0  0  0  0  0  0  0
    1.3928    2.8423    0.0000 C   0  0  0  0  0  0  0  0  0  0  0  0
    3.1579   -3.2447    0.0000 C   0  0  0  0  0  0  0  0  0  0  0  0
    1.7644   -2.9764    0.0000 C   0  0  0  0  0  0  0  0  0  0  0  0
    5.4102   -0.6243    0.0000 C   0  0  0  0  0  0  0  0  0  0  0  0
    0.1695   -0.9211    0.0000 C   0  0  0  0  0  0  0  0  0  0  0  0
    0.7318   -1.5955    0.0000 C   0  0  0  0  0  0  0  0  0  0  0  0
    0.2941    0.0337    0.0000 C   0  0  0  0  0  0  0  0  0  0  0  0
    1.5800   -1.8219    0.0000 C   0  0  0  0  0  0  0  0  0  0  0  0
   -0.2230   -0.2103    0.0000 C   0  0  0  0  0  0  0  0  0  0  0  0
    3.0023    0.2802    0.0000 C   0  0  0  0  0  0  0  0  0  0  0  0
    0.7926    2.2846    0.0000 C   0  0  0  0  0  0  0  0  0  0  0  0
    2.5386   -2.7083    0.0000 C   0  0  0  0  0  0  0  0  0  0  0  0
    0.6649   -0.5430    0.0000 C   0  0  0  0  0  0  0  0  0  0  0  0
    4.6185   -0.4133    0.0000 C   0  0  0  0  0  0  0  0  0  0  0  0
    3.3337    1.0398    0.0000 C   0  0  0  0  0  0  0  0  0  0  0  0
   -0.3674    0.6431    0.0000 C   0  0  0  0  0  0  0  0  0  0  0  0
    0.9754    1.4859    0.0000 C   0  0  0  0  0  0  0  0  0  0  0  0
    2.6934   -1.9038    0.0000 C   0  0  0  0  0  0  0  0  0  0  0  0
    4.2123   -1.1681    0.0000 C   0  0  0  0  0  0  0  0  0  0  0  0
    4.1780    1.1137    0.0000 C   0  0  0  0  0  0  0  0  0  0  0  0
    1.7938    1.6723    0.0000 C   0  0  0  0  0  0  0  0  0  0  0  0
    1.9315   -1.3928    0.0000 C   0  0  0  0  0  0  0  0  0  0  0  0
    4.6416    0.4364    0.0000 N   0  0  0  0  0  0  0  0  0  0  0  0
    2.6225    1.4884    0.0000 N   0  0  0  0  0  0  0  0  0  0  0  0
    0.1687    1.3002    0.0000 N   0  0  0  0  0  0  0  0  0  0  0  0
    3.5626   -1.7181    0.0000 N   0  0  0  0  0  0  0  0  0  0  0  0
   -1.1595    0.8525    0.0000 O   0  0  0  0  0  0  0  0  0  0  0  0
    4.8489   -1.6839    0.0000 O   0  0  0  0  0  0  0  0  0  0  0  0
    4.5280    1.8544    0.0000 O   0  0  0  0  0  0  0  0  0  0  0  0
    1.7915    2.4916    0.0000 O   0  0  0  0  0  0  0  0  0  0  0  0
    1.3491   -1.9690    0.0000 O   0  0  0  0  0  0  0  0  0  0  0  0
    1.4685   -0.6859    0.0000 O   0  0  0  0  0  0  0  0  0  0  0  0
    2.4148   -1.2640    0.0000 S   0  0  0  0  0  0  0  0  0  0  0  0
    2.7831   -0.5151    0.0000 S   0  0  0  0  0  0  0  0  0  0  0  0
    0.0000    0.0000    0.0000 H   0  0  0  0  0  0  0  0  0  0  0  0
    0.0000    0.0000    0.0000 H   0  0  0  0  0  0  0  0  0  0  0  0
    0.0000    0.0000    0.0000 H   0  0  0  0  0  0  0  0  0  0  0  0
    0.0000    0.0000    0.0000 H   0  0  0  0  0  0  0  0  0  0  0  0
    0.0000    0.0000    0.0000 H   0  0  0  0  0  0  0  0  0  0  0  0
    0.0000    0.0000    0.0000 H   0  0  0  0  0  0  0  0  0  0  0  0
    0.0000    0.0000    0.0000 H   0  0  0  0  0  0  0  0  0  0  0  0
    0.0000    0.0000    0.0000 H   0  0  0  0  0  0  0  0  0  0  0  0
    0.0000    0.0000    0.0000 H   0  0  0  0  0  0  0  0  0  0  0  0
    0.0000    0.0000    0.0000 H   0  0  0  0  0  0  0  0  0  0  0  0
    0.0000    0.0000    0.0000 H   0  0  0  0  0  0  0  0  0  0  0  0
    0.0000    0.0000    0.0000 H   0  0  0  0  0  0  0  0  0  0  0  0
    0.0000    0.0000    0.0000 H   0  0  0  0  0  0  0  0  0  0  0  0
    0.0000    0.0000    0.0000 H   0  0  0  0  0  0  0  0  0  0  0  0
    0.0000    0.0000    0.0000 H   0  0  0  0  0  0  0  0  0  0  0  0
    0.0000    0.0000    0.0000 H   0  0  0  0  0  0  0  0  0  0  0  0
    0.0000    0.0000    0.0000 H   0  0  0  0  0  0  0  0  0  0  0  0
    0.0000    0.0000    0.0000 H   0  0  0  0  0  0  0  0  0  0  0  0
    0.0000    0.0000    0.0000 H   0  0  0  0  0  0  0  0  0  0  0  0
    0.0000    0.0000    0.0000 H   0  0  0  0  0  0  0  0  0  0  0  0
    0.0000    0.0000    0.0000 H   0  0  0  0  0  0  0  0  0  0  0  0
    0.0000    0.0000    0.0000 H   0  0  0  0  0  0  0  0  0  0  0  0
    0.0000    0.0000    0.0000 H   0  0  0  0  0  0  0  0  0  0  0  0
    0.0000    0.0000    0.0000 H   0  0  0  0  0  0  0  0  0  0  0  0
    0.0000    0.0000    0.0000 H   0  0  0  0  0  0  0  0  0  0  0  0
    0.0000    0.0000    0.0000 H   0  0  0  0  0  0  0  0  0  0  0  0
    0.0000    0.0000    0.0000 H   0  0  0  0  0  0  0  0  0  0  0  0
    0.0000    0.0000    0.0000 H   0  0  0  0  0  0  0  0  0  0  0  0
    0.0000    0.0000    0.0000 H   0  0  0  0  0  0  0  0  0  0  0  0
    0.0000    0.0000    0.0000 H   0  0  0  0  0  0  0  0  0  0  0  0
    0.0000    0.0000    0.0000 H   0  0  0  0  0  0  0  0  0  0  0  0
    0.0000    0.0000    0.0000 H   0  0  0  0  0  0  0  0  0  0  0  0
    0.0000    0.0000    0.0000 H   0  0  0  0  0  0  0  0  0  0  0  0
    0.0000    0.0000    0.0000 H   0  0  0  0  0  0  0  0  0  0  0  0
    0.0000    0.0000    0.0000 H   0  0  0  0  0  0  0  0  0  0  0  0
    0.0000    0.0000    0.0000 H   0  0  0  0  0  0  0  0  0  0  0  0
  6  1  1  0
  8  7  1  0
  9  7  2  0
 10  8  1  0
 13  2  1  0
 13  3  1  0
 14  4  1  0
 14  5  1  0
 15  9  1  0
 15 11  1  0
 16  6  2  3
 17 12  1  0
 18 11  1  0
 19 13  1  1
 20 14  1  6
 21 16  1  0
 22 17  1  0
 23 19  1  0
 24 20  1  0
 25 16  1  0
 25 22  2  0
 26 17  1  0
 26 23  2  0
 27 18  2  0
 27 19  1  0
 28 20  1  0
 28 21  2  0
 18 29  1  0
 21 30  1  0
 31 22  1  0
 23 32  1  0
 33 24  2  0
 34 15  1  0
 34 24  1  0
 35 10  1  0
 36 12  1  0
 36 35  1  0
  1 37  1  0
  1 38  1  0
  1 39  1  0
  2 40  1  0
  2 41  1  0
  2 42  1  0
  3 43  1  0
  3 44  1  0
  3 45  1  0
  4 46  1  0
  4 47  1  0
  4 48  1  0
  5 49  1  0
  5 50  1  0
  5 51  1  0
  6 52  1  0
  7 53  1  0
  8 54  1  0
  8 55  1  0
  9 56  1  0
 10 57  1  0
 10 58  1  0
 11 59  1  0
 11 60  1  0
 12 61  1  0
 12 62  1  0
 13 63  1  0
 14 64  1  0
 15 65  1  6
 17 66  1  6
 19 67  1  0
 20 68  1  0
 29 69  1  0
 30 70  1  0
 31 71  1  0
 32 72  1  0
M  END
>  <ALOGPS_LOGP>  (1) 
3.05

>  <ALOGPS_LOGS>  (1) 
-4.41

>  <ALOGPS_SOLUBILITY>  (1) 
2.10e-02 g/l

>  <DATABASE_ID>  (1) 
DB06176

>  <DATABASE_NAME>  (1) 
drugbank

>  <DRUGBANK_ID>  (1) 
DB06176

>  <DRUG_GROUPS>  (1) 
approved; investigational

>  <EXACT_MASS>  (1) 
540.207627243

>  <FORMULA>  (1) 
C24H36N4O6S2

>  <GENERIC_NAME>  (1) 
Romidepsin

>  <INCHI_IDENTIFIER>  (1) 
InChI=1S/C24H36N4O6S2/c1-6-16-21(30)28-20(14(4)5)24(33)34-15-9-7-8-10-35-36-12-17(22(31)25-16)26-23(32)19(13(2)3)27-18(29)11-15/h6-7,9,13-15,17,19-20H,8,10-12H2,1-5H3,(H,25,31)(H,26,32)(H,27,29)(H,28,30)/b9-7-,16-6-/t15-,17-,19-,20+/m1/s1

>  <INCHI_KEY>  (1) 
OHRURASPPZQGQM-QDBHDZETSA-N

>  <JCHEM_ACCEPTOR_COUNT>  (1) 
9

>  <JCHEM_ATOM_COUNT>  (1) 
72

>  <JCHEM_AVERAGE_POLARIZABILITY>  (1) 
54.55677971512828

>  <JCHEM_BIOAVAILABILITY>  (1) 
1

>  <JCHEM_DONOR_COUNT>  (1) 
4

>  <JCHEM_FORMAL_CHARGE>  (1) 
0

>  <JCHEM_GHOSE_FILTER>  (1) 
0

>  <JCHEM_IUPAC>  (1) 
(1S,4S,7Z,10S,21R)-7-ethylidene-6,9,19,22-tetrahydroxy-4,21-bis(propan-2-yl)-2-oxa-12,13-dithia-5,8,20,23-tetraazabicyclo[8.7.6]tricosa-5,8,16,19,22-pentaen-3-one

>  <JCHEM_LOGP>  (1) 
-0.5305606998600867

>  <JCHEM_MDDR_LIKE_RULE>  (1) 
0

>  <JCHEM_NUMBER_OF_RINGS>  (1) 
2

>  <JCHEM_PHYSIOLOGICAL_CHARGE>  (1) 
0

>  <JCHEM_PKA>  (1) 
3.208007853436247

>  <JCHEM_PKA_STRONGEST_ACIDIC>  (1) 
-9.538913091846606

>  <JCHEM_PKA_STRONGEST_BASIC>  (1) 
14.950510363476821

>  <JCHEM_POLAR_SURFACE_AREA>  (1) 
156.66

>  <JCHEM_REFRACTIVITY>  (1) 
144.17239999999998

>  <JCHEM_ROTATABLE_BOND_COUNT>  (1) 
2

>  <JCHEM_RULE_OF_FIVE>  (1) 
0

>  <JCHEM_TRADITIONAL_IUPAC>  (1) 
(1S,4S,7Z,10S,21R)-7-ethylidene-6,9,19,22-tetrahydroxy-4,21-diisopropyl-2-oxa-12,13-dithia-5,8,20,23-tetraazabicyclo[8.7.6]tricosa-5,8,16,19,22-pentaen-3-one

>  <JCHEM_VEBER_RULE>  (1) 
0

>  <MOLECULAR_WEIGHT>  (1) 
540.69

>  <PRODUCTS>  (1) 
Istodax

>  <SMILES>  (1) 
[H]\C(C)=C1\N=C(O)[C@@]2([H])CSSCCC([H])=C([H])[C@]([H])(CC(O)=N[C@]([H])(C(C)C)C(O)=N2)OC(=O)[C@@]([H])(N=C1O)C(C)C

$$$$
