 
     RDKit          2D

160163  0  0  1  0  0  0  0  0999 V2000
   14.8928  -15.2264    0.0000 N   0  0  0  0  0  0  0  0  0  0  0  0
   15.5940  -14.8140    0.0000 C   0  0  0  0  0  0  0  0  0  0  0  0
   14.8928  -16.0514    0.0000 C   0  0  0  0  0  0  0  0  0  0  0  0
   14.1502  -14.8140    0.0000 C   0  0  0  0  0  0  0  0  0  0  0  0
   16.2952  -15.2264    0.0000 C   0  0  0  0  0  0  0  0  0  0  0  0
   15.5940  -13.9890    0.0000 C   0  0  0  0  0  0  0  0  0  0  0  0
   14.1502  -16.4640    0.0000 C   0  0  0  0  0  0  0  0  0  0  0  0
   15.5940  -16.4640    0.0000 O   0  0  0  0  0  0  0  0  0  0  0  0
   14.1502  -13.9890    0.0000 C   0  0  0  0  0  0  0  0  0  0  0  0
   16.9964  -14.8140    0.0000 O   0  0  0  0  0  0  0  0  0  0  0  0
   16.2952  -15.8865    0.0000 O   0  0  0  0  0  0  0  0  0  0  0  0
   14.8928  -13.5352    0.0000 C   0  0  0  0  0  0  0  0  0  0  0  0
   14.1502  -17.2889    0.0000 C   0  0  0  0  0  0  0  0  0  0  0  0
   13.4490  -16.0102    0.0000 O   0  0  0  0  0  0  0  0  0  0  0  0
   17.7389  -15.2264    0.0000 C   0  0  0  0  0  0  0  0  0  0  0  0
   14.8515  -17.7014    0.0000 O   0  0  0  0  0  0  0  0  0  0  0  0
   13.4077  -17.7014    0.0000 C   0  0  0  0  0  0  0  0  0  0  0  0
   13.9852  -18.1139    0.0000 O   0  0  0  0  0  0  0  0  0  0  0  0
   18.4402  -14.8140    0.0000 C   0  0  0  0  0  0  0  0  0  0  0  0
   17.7389  -16.0514    0.0000 C   0  0  0  0  0  0  0  0  0  0  0  0
   14.8515  -18.5264    0.0000 C   0  0  0  0  0  0  0  0  0  0  0  0
   13.4077  -18.4852    0.0000 C   0  0  0  0  0  0  0  0  0  0  0  0
   12.7065  -17.2476    0.0000 C   0  0  0  0  0  0  0  0  0  0  0  0
   19.1827  -15.2264    0.0000 C   0  0  0  0  0  0  0  0  0  0  0  0
   18.4402  -13.9890    0.0000 C   0  0  0  0  0  0  0  0  0  0  0  0
   18.4402  -16.4640    0.0000 C   0  0  0  0  0  0  0  0  0  0  0  0
   15.5527  -18.9389    0.0000 C   0  0  0  0  0  0  0  0  0  0  0  0
   14.1502  -18.9389    0.0000 C   0  0  0  0  0  0  0  0  0  0  0  0
   19.8840  -14.8140    0.0000 C   0  0  0  0  0  0  0  0  0  0  0  0
   18.4402  -17.2889    0.0000 C   0  0  0  0  0  0  0  0  0  0  0  0
   19.1827  -16.0102    0.0000 O   0  0  0  0  0  0  0  0  0  0  0  0
   15.5527  -19.7639    0.0000 C   0  0  0  0  0  0  0  0  0  0  0  0
   20.5852  -15.2264    0.0000 C   0  0  0  0  0  0  0  0  0  0  0  0
   19.8840  -13.9890    0.0000 C   0  0  0  0  0  0  0  0  0  0  0  0
   19.1827  -17.7014    0.0000 C   0  0  0  0  0  0  0  0  0  0  0  0
   17.7389  -17.7014    0.0000 C   0  0  0  0  0  0  0  0  0  0  0  0
   16.2539  -20.1764    0.0000 C   0  0  0  0  0  0  0  0  0  0  0  0
   14.8515  -20.1764    0.0000 O   0  0  0  0  0  0  0  0  0  0  0  0
   21.2864  -14.8140    0.0000 C   0  0  0  0  0  0  0  0  0  0  0  0
   20.5852  -13.5764    0.0000 C   0  0  0  0  0  0  0  0  0  0  0  0
   19.1827  -18.4852    0.0000 C   0  0  0  0  0  0  0  0  0  0  0  0
   16.2539  -21.0014    0.0000 C   0  0  0  0  0  0  0  0  0  0  0  0
   16.9964  -19.7639    0.0000 C   0  0  0  0  0  0  0  0  0  0  0  0
   14.8515  -21.0014    0.0000 C   0  0  0  0  0  0  0  0  0  0  0  0
   21.2864  -13.9890    0.0000 C   0  0  0  0  0  0  0  0  0  0  0  0
   22.0289  -15.2264    0.0000 O   0  0  0  0  0  0  0  0  0  0  0  0
   19.8840  -18.8976    0.0000 C   0  0  0  0  0  0  0  0  0  0  0  0
   18.4402  -18.8976    0.0000 C   0  0  0  0  0  0  0  0  0  0  0  0
   16.9552  -21.4139    0.0000 C   0  0  0  0  0  0  0  0  0  0  0  0
   22.0289  -13.5352    0.0000 O   0  0  0  0  0  0  0  0  0  0  0  0
   19.8840  -19.7226    0.0000 C   0  0  0  0  0  0  0  0  0  0  0  0
   20.5852  -18.4852    0.0000 O   0  0  0  0  0  0  0  0  0  0  0  0
   16.9552  -22.2389    0.0000 C   0  0  0  0  0  0  0  0  0  0  0  0
   20.5852  -20.1352    0.0000 C   0  0  0  0  0  0  0  0  0  0  0  0
   19.1415  -20.1352    0.0000 O   0  0  0  0  0  0  0  0  0  0  0  0
   17.6977  -22.6514    0.0000 C   0  0  0  0  0  0  0  0  0  0  0  0
   20.5852  -20.9602    0.0000 C   0  0  0  0  0  0  0  0  0  0  0  0
   21.2864  -19.7226    0.0000 O   0  0  0  0  0  0  0  0  0  0  0  0
   19.1415  -20.9602    0.0000 C   0  0  0  0  0  0  0  0  0  0  0  0
   18.3990  -22.2389    0.0000 C   0  0  0  0  0  0  0  0  0  0  0  0
   19.8840  -21.3726    0.0000 C   0  0  0  0  0  0  0  0  0  0  0  0
   21.2864  -21.3726    0.0000 C   0  0  0  0  0  0  0  0  0  0  0  0
   19.2240  -22.2389    0.0000 C   0  0  0  0  0  0  0  0  0  0  0  0
   19.4302  -23.0226    0.0000 C   0  0  0  0  0  0  0  0  0  0  0  0
   22.7652  -13.9362    0.0000 C   0  0  0  0  0  0  0  0  0  0  0  0
   23.4766  -13.5013    0.0000 C   0  0  0  0  0  0  0  0  0  0  0  0
   22.0289  -16.0520    0.0000 C   0  0  0  0  0  0  0  0  0  0  0  0
   22.7859  -14.7770    0.0000 O   0  0  0  0  0  0  0  0  0  0  0  0
   24.2076  -13.8992    0.0000 C   0  0  0  0  0  0  0  0  0  0  0  0
   23.4557  -12.6725    0.0000 C   0  0  0  0  0  0  0  0  0  0  0  0
   24.1897  -12.9002    0.0000 C   0  0  0  0  0  0  0  0  0  0  0  0
   24.8928  -13.4803    0.0000 O   0  0  0  0  0  0  0  0  0  0  0  0
   24.1525  -12.2464    0.0000 O   0  0  0  0  0  0  0  0  0  0  0  0
    0.0000    0.0000    0.0000 H   0  0  0  0  0  0  0  0  0  0  0  0
    0.0000    0.0000    0.0000 H   0  0  0  0  0  0  0  0  0  0  0  0
    0.0000    0.0000    0.0000 H   0  0  0  0  0  0  0  0  0  0  0  0
    0.0000    0.0000    0.0000 H   0  0  0  0  0  0  0  0  0  0  0  0
    0.0000    0.0000    0.0000 H   0  0  0  0  0  0  0  0  0  0  0  0
    0.0000    0.0000    0.0000 H   0  0  0  0  0  0  0  0  0  0  0  0
    0.0000    0.0000    0.0000 H   0  0  0  0  0  0  0  0  0  0  0  0
    0.0000    0.0000    0.0000 H   0  0  0  0  0  0  0  0  0  0  0  0
    0.0000    0.0000    0.0000 H   0  0  0  0  0  0  0  0  0  0  0  0
    0.0000    0.0000    0.0000 H   0  0  0  0  0  0  0  0  0  0  0  0
    0.0000    0.0000    0.0000 H   0  0  0  0  0  0  0  0  0  0  0  0
    0.0000    0.0000    0.0000 H   0  0  0  0  0  0  0  0  0  0  0  0
    0.0000    0.0000    0.0000 H   0  0  0  0  0  0  0  0  0  0  0  0
    0.0000    0.0000    0.0000 H   0  0  0  0  0  0  0  0  0  0  0  0
    0.0000    0.0000    0.0000 H   0  0  0  0  0  0  0  0  0  0  0  0
    0.0000    0.0000    0.0000 H   0  0  0  0  0  0  0  0  0  0  0  0
    0.0000    0.0000    0.0000 H   0  0  0  0  0  0  0  0  0  0  0  0
    0.0000    0.0000    0.0000 H   0  0  0  0  0  0  0  0  0  0  0  0
    0.0000    0.0000    0.0000 H   0  0  0  0  0  0  0  0  0  0  0  0
    0.0000    0.0000    0.0000 H   0  0  0  0  0  0  0  0  0  0  0  0
    0.0000    0.0000    0.0000 H   0  0  0  0  0  0  0  0  0  0  0  0
    0.0000    0.0000    0.0000 H   0  0  0  0  0  0  0  0  0  0  0  0
    0.0000    0.0000    0.0000 H   0  0  0  0  0  0  0  0  0  0  0  0
    0.0000    0.0000    0.0000 H   0  0  0  0  0  0  0  0  0  0  0  0
    0.0000    0.0000    0.0000 H   0  0  0  0  0  0  0  0  0  0  0  0
    0.0000    0.0000    0.0000 H   0  0  0  0  0  0  0  0  0  0  0  0
    0.0000    0.0000    0.0000 H   0  0  0  0  0  0  0  0  0  0  0  0
    0.0000    0.0000    0.0000 H   0  0  0  0  0  0  0  0  0  0  0  0
    0.0000    0.0000    0.0000 H   0  0  0  0  0  0  0  0  0  0  0  0
    0.0000    0.0000    0.0000 H   0  0  0  0  0  0  0  0  0  0  0  0
    0.0000    0.0000    0.0000 H   0  0  0  0  0  0  0  0  0  0  0  0
    0.0000    0.0000    0.0000 H   0  0  0  0  0  0  0  0  0  0  0  0
    0.0000    0.0000    0.0000 H   0  0  0  0  0  0  0  0  0  0  0  0
    0.0000    0.0000    0.0000 H   0  0  0  0  0  0  0  0  0  0  0  0
    0.0000    0.0000    0.0000 H   0  0  0  0  0  0  0  0  0  0  0  0
    0.0000    0.0000    0.0000 H   0  0  0  0  0  0  0  0  0  0  0  0
    0.0000    0.0000    0.0000 H   0  0  0  0  0  0  0  0  0  0  0  0
    0.0000    0.0000    0.0000 H   0  0  0  0  0  0  0  0  0  0  0  0
    0.0000    0.0000    0.0000 H   0  0  0  0  0  0  0  0  0  0  0  0
    0.0000    0.0000    0.0000 H   0  0  0  0  0  0  0  0  0  0  0  0
    0.0000    0.0000    0.0000 H   0  0  0  0  0  0  0  0  0  0  0  0
    0.0000    0.0000    0.0000 H   0  0  0  0  0  0  0  0  0  0  0  0
    0.0000    0.0000    0.0000 H   0  0  0  0  0  0  0  0  0  0  0  0
    0.0000    0.0000    0.0000 H   0  0  0  0  0  0  0  0  0  0  0  0
    0.0000    0.0000    0.0000 H   0  0  0  0  0  0  0  0  0  0  0  0
    0.0000    0.0000    0.0000 H   0  0  0  0  0  0  0  0  0  0  0  0
    0.0000    0.0000    0.0000 H   0  0  0  0  0  0  0  0  0  0  0  0
    0.0000    0.0000    0.0000 H   0  0  0  0  0  0  0  0  0  0  0  0
    0.0000    0.0000    0.0000 H   0  0  0  0  0  0  0  0  0  0  0  0
    0.0000    0.0000    0.0000 H   0  0  0  0  0  0  0  0  0  0  0  0
    0.0000    0.0000    0.0000 H   0  0  0  0  0  0  0  0  0  0  0  0
    0.0000    0.0000    0.0000 H   0  0  0  0  0  0  0  0  0  0  0  0
    0.0000    0.0000    0.0000 H   0  0  0  0  0  0  0  0  0  0  0  0
    0.0000    0.0000    0.0000 H   0  0  0  0  0  0  0  0  0  0  0  0
    0.0000    0.0000    0.0000 H   0  0  0  0  0  0  0  0  0  0  0  0
    0.0000    0.0000    0.0000 H   0  0  0  0  0  0  0  0  0  0  0  0
    0.0000    0.0000    0.0000 H   0  0  0  0  0  0  0  0  0  0  0  0
    0.0000    0.0000    0.0000 H   0  0  0  0  0  0  0  0  0  0  0  0
    0.0000    0.0000    0.0000 H   0  0  0  0  0  0  0  0  0  0  0  0
    0.0000    0.0000    0.0000 H   0  0  0  0  0  0  0  0  0  0  0  0
    0.0000    0.0000    0.0000 H   0  0  0  0  0  0  0  0  0  0  0  0
    0.0000    0.0000    0.0000 H   0  0  0  0  0  0  0  0  0  0  0  0
    0.0000    0.0000    0.0000 H   0  0  0  0  0  0  0  0  0  0  0  0
    0.0000    0.0000    0.0000 H   0  0  0  0  0  0  0  0  0  0  0  0
    0.0000    0.0000    0.0000 H   0  0  0  0  0  0  0  0  0  0  0  0
    0.0000    0.0000    0.0000 H   0  0  0  0  0  0  0  0  0  0  0  0
    0.0000    0.0000    0.0000 H   0  0  0  0  0  0  0  0  0  0  0  0
    0.0000    0.0000    0.0000 H   0  0  0  0  0  0  0  0  0  0  0  0
    0.0000    0.0000    0.0000 H   0  0  0  0  0  0  0  0  0  0  0  0
    0.0000    0.0000    0.0000 H   0  0  0  0  0  0  0  0  0  0  0  0
    0.0000    0.0000    0.0000 H   0  0  0  0  0  0  0  0  0  0  0  0
    0.0000    0.0000    0.0000 H   0  0  0  0  0  0  0  0  0  0  0  0
    0.0000    0.0000    0.0000 H   0  0  0  0  0  0  0  0  0  0  0  0
    0.0000    0.0000    0.0000 H   0  0  0  0  0  0  0  0  0  0  0  0
    0.0000    0.0000    0.0000 H   0  0  0  0  0  0  0  0  0  0  0  0
    0.0000    0.0000    0.0000 H   0  0  0  0  0  0  0  0  0  0  0  0
    0.0000    0.0000    0.0000 H   0  0  0  0  0  0  0  0  0  0  0  0
    0.0000    0.0000    0.0000 H   0  0  0  0  0  0  0  0  0  0  0  0
    0.0000    0.0000    0.0000 H   0  0  0  0  0  0  0  0  0  0  0  0
    0.0000    0.0000    0.0000 H   0  0  0  0  0  0  0  0  0  0  0  0
    0.0000    0.0000    0.0000 H   0  0  0  0  0  0  0  0  0  0  0  0
    0.0000    0.0000    0.0000 H   0  0  0  0  0  0  0  0  0  0  0  0
    0.0000    0.0000    0.0000 H   0  0  0  0  0  0  0  0  0  0  0  0
    0.0000    0.0000    0.0000 H   0  0  0  0  0  0  0  0  0  0  0  0
    0.0000    0.0000    0.0000 H   0  0  0  0  0  0  0  0  0  0  0  0
    0.0000    0.0000    0.0000 H   0  0  0  0  0  0  0  0  0  0  0  0
    0.0000    0.0000    0.0000 H   0  0  0  0  0  0  0  0  0  0  0  0
  1  2  1  0
  1  3  1  0
  1  4  1  0
  2  5  1  0
  2  6  1  0
  3  7  1  0
  3  8  2  0
  4  9  1  0
  5 10  1  0
  5 11  2  0
  6 12  1  0
  7 13  1  0
  7 14  2  0
 10 15  1  0
 13 16  1  0
 13 17  1  0
 13 18  1  1
 15 19  1  0
 15 20  1  0
 21 16  1  0
 17 22  1  0
 17 23  1  1
 19 24  1  1
 19 25  1  0
 20 26  1  0
 21 27  1  0
 21 28  1  0
 29 24  1  6
 26 30  1  0
 26 31  2  0
 27 32  1  0
 29 33  1  0
 29 34  1  0
 30 35  1  0
 30 36  1  1
 32 37  1  0
 32 38  1  1
 33 39  1  0
 34 40  1  0
 35 41  2  0
 37 42  2  0
 37 43  1  0
 38 44  1  0
 39 45  1  0
 39 46  1  1
 41 47  1  0
 41 48  1  0
 42 49  1  0
 45 50  1  1
 47 51  1  0
 47 52  1  1
 49 53  2  0
 51 54  1  0
 51 55  1  6
 53 56  1  0
 54 57  1  0
 54 58  2  0
 55 59  1  0
 56 60  2  0
 57 61  1  0
 57 62  1  1
 60 63  1  0
 63 64  1  1
  9 12  1  0
 22 28  1  0
 40 45  1  0
 61 63  1  0
 50 65  1  0
 65 66  1  0
 46 67  1  0
 65 68  2  0
 66 69  1  0
 66 70  1  0
 66 71  1  0
 69 72  1  0
 70 73  1  0
  2 74  1  6
  4 75  1  0
  4 76  1  0
  6 77  1  0
  6 78  1  0
  9 79  1  0
  9 80  1  0
 12 81  1  0
 12 82  1  0
 15 83  1  1
 17 84  1  0
 18 85  1  0
 19 86  1  0
 20 87  1  0
 20 88  1  0
 21 89  1  1
 22 90  1  0
 22 91  1  0
 23 92  1  0
 23 93  1  0
 23 94  1  0
 24 95  1  0
 24 96  1  0
 25 97  1  0
 25 98  1  0
 25 99  1  0
 27100  1  0
 27101  1  0
 28102  1  0
 28103  1  0
 29104  1  0
 30105  1  0
 32106  1  0
 33107  1  0
 33108  1  0
 34109  1  0
 34110  1  0
 35111  1  0
 36112  1  0
 36113  1  0
 36114  1  0
 39115  1  0
 40116  1  0
 40117  1  0
 42118  1  0
 43119  1  0
 43120  1  0
 43121  1  0
 44122  1  0
 44123  1  0
 44124  1  0
 45125  1  0
 47126  1  0
 48127  1  0
 48128  1  0
 48129  1  0
 49130  1  0
 51131  1  0
 52132  1  0
 53133  1  0
 56134  1  0
 57135  1  0
 59136  1  0
 59137  1  0
 59138  1  0
 60139  1  0
 61140  1  0
 61141  1  0
 62142  1  0
 62143  1  0
 62144  1  0
 63145  1  0
 64146  1  0
 64147  1  0
 64148  1  0
 67149  1  0
 67150  1  0
 67151  1  0
 69152  1  0
 69153  1  0
 70154  1  0
 70155  1  0
 71156  1  0
 71157  1  0
 71158  1  0
 72159  1  0
 73160  1  0
M  END
>  <ALOGPS_LOGP>  (1) 
4.39

>  <ALOGPS_LOGS>  (1) 
-5.64

>  <ALOGPS_SOLUBILITY>  (1) 
2.35e-03 g/l

>  <DATABASE_ID>  (1) 
DB06287

>  <DATABASE_NAME>  (1) 
drugbank

>  <DRUGBANK_ID>  (1) 
DB06287

>  <DRUG_GROUPS>  (1) 
approved

>  <EXACT_MASS>  (1) 
1029.602485741

>  <FORMULA>  (1) 
C56H87NO16

>  <GENERIC_NAME>  (1) 
Temsirolimus

>  <INCHI_IDENTIFIER>  (1) 
InChI=1S/C56H87NO16/c1-33-17-13-12-14-18-34(2)45(68-9)29-41-22-20-39(7)56(67,73-41)51(63)52(64)57-24-16-15-19-42(57)53(65)71-46(30-43(60)35(3)26-38(6)49(62)50(70-11)48(61)37(5)25-33)36(4)27-40-21-23-44(47(28-40)69-10)72-54(66)55(8,31-58)32-59/h12-14,17-18,26,33,35-37,39-42,44-47,49-50,58-59,62,67H,15-16,19-25,27-32H2,1-11H3/b14-12+,17-13+,34-18+,38-26+/t33-,35-,36-,37-,39-,40+,41+,42+,44-,45+,46+,47-,49-,50+,56-/m1/s1

>  <INCHI_KEY>  (1) 
CBPNZQVSJQDFBE-FUXHJELOSA-N

>  <JCHEM_ACCEPTOR_COUNT>  (1) 
14

>  <JCHEM_AVERAGE_POLARIZABILITY>  (1) 
112.71414689360529

>  <JCHEM_BIOAVAILABILITY>  (1) 
0

>  <JCHEM_DONOR_COUNT>  (1) 
4

>  <JCHEM_FORMAL_CHARGE>  (1) 
0

>  <JCHEM_GHOSE_FILTER>  (1) 
0

>  <JCHEM_IUPAC>  (1) 
(1R,2R,4S)-4-[(2R)-2-[(1R,9S,12S,15R,16E,18R,19R,21R,23S,24E,26E,28E,30S,32S,35R)-1,18-dihydroxy-19,30-dimethoxy-15,17,21,23,29,35-hexamethyl-2,3,10,14,20-pentaoxo-11,36-dioxa-4-azatricyclo[30.3.1.0⁴,⁹]hexatriaconta-16,24,26,28-tetraen-12-yl]propyl]-2-methoxycyclohexyl 3-hydroxy-2-(hydroxymethyl)-2-methylpropanoate

>  <JCHEM_LOGP>  (1) 
7.129959347000002

>  <JCHEM_MDDR_LIKE_RULE>  (1) 
1

>  <JCHEM_NUMBER_OF_RINGS>  (1) 
4

>  <JCHEM_PHYSIOLOGICAL_CHARGE>  (1) 
0

>  <JCHEM_PKA>  (1) 
13.402186538933488

>  <JCHEM_PKA_STRONGEST_ACIDIC>  (1) 
9.963740579032375

>  <JCHEM_PKA_STRONGEST_BASIC>  (1) 
-2.8802756644755236

>  <JCHEM_POLAR_SURFACE_AREA>  (1) 
241.95999999999995

>  <JCHEM_REFRACTIVITY>  (1) 
277.06649999999996

>  <JCHEM_ROTATABLE_BOND_COUNT>  (1) 
11

>  <JCHEM_RULE_OF_FIVE>  (1) 
0

>  <JCHEM_TRADITIONAL_IUPAC>  (1) 
temsirolimus

>  <JCHEM_VEBER_RULE>  (1) 
0

>  <MOLECULAR_WEIGHT>  (1) 
1030.2871

>  <PRODUCTS>  (1) 
Gd-temsirolimus; Torisel

>  <SMILES>  (1) 
OCC(C)(CO)C(=O)O[C@@H]1CC[C@@H](C[C@@H](C)[C@]2([H])CC(=O)[C@H](C)\C=C(C)\[C@@H](O)[C@@H](OC)C(=O)[C@H](C)C[C@H](C)\C=C\C=C\C=C(C)\[C@@H](OC)C[C@]3([H])CC[C@@H](C)[C@@](O)(O3)C(=O)C(=O)N3CCCC[C@H]3C(=O)O2)C[C@H]1OC

$$$$
