
     RDKit          2D

 19 18  0  0  0  0  0  0  0  0999 V2000
    2.0625    0.7144    0.0000 C   0  0  0  0  0  0  0  0  0  0  0  0
   -0.4125   -0.7144    0.0000 C   0  0  0  0  0  0  0  0  0  0  0  0
    1.2375    0.7144    0.0000 C   0  0  0  0  0  0  0  0  0  0  0  0
   -1.2375   -0.7144    0.0000 C   0  0  0  0  0  0  0  0  0  0  0  0
    0.8250    0.0000    0.0000 C   0  0  0  0  0  0  0  0  0  0  0  0
    0.0000    0.0000    0.0000 N   0  0  0  0  0  0  0  0  0  0  0  0
   -1.6500   -1.4289    0.0000 O   0  0  0  0  0  0  0  0  0  0  0  0
   -1.6500    0.0000    0.0000 O   0  0  0  0  0  0  0  0  0  0  0  0
    1.2375   -0.7144    0.0000 O   0  0  0  0  0  0  0  0  0  0  0  0
    0.8250    1.4289    0.0000 S   0  0  0  0  0  0  0  0  0  0  0  0
    0.0000    0.0000    0.0000 H   0  0  0  0  0  0  0  0  0  0  0  0
    0.0000    0.0000    0.0000 H   0  0  0  0  0  0  0  0  0  0  0  0
    0.0000    0.0000    0.0000 H   0  0  0  0  0  0  0  0  0  0  0  0
    0.0000    0.0000    0.0000 H   0  0  0  0  0  0  0  0  0  0  0  0
    0.0000    0.0000    0.0000 H   0  0  0  0  0  0  0  0  0  0  0  0
    0.0000    0.0000    0.0000 H   0  0  0  0  0  0  0  0  0  0  0  0
    0.0000    0.0000    0.0000 H   0  0  0  0  0  0  0  0  0  0  0  0
    0.0000    0.0000    0.0000 H   0  0  0  0  0  0  0  0  0  0  0  0
    0.0000    0.0000    0.0000 H   0  0  0  0  0  0  0  0  0  0  0  0
  3  1  1  0
  4  2  1  0
  5  3  1  0
  6  2  1  0
  6  5  2  3
  7  4  2  0
  8  4  1  0
  9  5  1  0
 10  3  1  0
  1 11  1  0
  1 12  1  0
  1 13  1  0
  2 14  1  0
  2 15  1  0
  3 16  1  0
  8 17  1  0
  9 18  1  0
 10 19  1  0
M  END
>  <ALOGPS_LOGP>  (1) 
0.08

>  <ALOGPS_LOGS>  (1) 
-1.78

>  <ALOGPS_SOLUBILITY>  (1) 
2.71e+00 g/l

>  <DATABASE_ID>  (1) 
DB06823

>  <DATABASE_NAME>  (1) 
drugbank

>  <DRUGBANK_ID>  (1) 
DB06823

>  <DRUG_GROUPS>  (1) 
approved; investigational

>  <EXACT_MASS>  (1) 
163.030314328

>  <FORMULA>  (1) 
C5H9NO3S

>  <GENERIC_NAME>  (1) 
Tiopronin

>  <INCHI_IDENTIFIER>  (1) 
InChI=1S/C5H9NO3S/c1-3(10)5(9)6-2-4(7)8/h3,10H,2H2,1H3,(H,6,9)(H,7,8)

>  <INCHI_KEY>  (1) 
YTGJWQPHMWSCST-UHFFFAOYSA-N

>  <INTERNATIONAL_BRANDS>  (1) 
Acadione; Captimer ; Epatiol; Mucosyt

>  <JCHEM_ACCEPTOR_COUNT>  (1) 
4

>  <JCHEM_ATOM_COUNT>  (1) 
19

>  <JCHEM_AVERAGE_POLARIZABILITY>  (1) 
15.593704588671352

>  <JCHEM_BIOAVAILABILITY>  (1) 
1

>  <JCHEM_DONOR_COUNT>  (1) 
3

>  <JCHEM_FORMAL_CHARGE>  (1) 
0

>  <JCHEM_GHOSE_FILTER>  (1) 
0

>  <JCHEM_IUPAC>  (1) 
2-[(1-hydroxy-2-sulfanylpropylidene)amino]acetic acid

>  <JCHEM_LOGP>  (1) 
0.28630483666666673

>  <JCHEM_MDDR_LIKE_RULE>  (1) 
0

>  <JCHEM_NUMBER_OF_RINGS>  (1) 
0

>  <JCHEM_PHYSIOLOGICAL_CHARGE>  (1) 
-1

>  <JCHEM_PKA>  (1) 
5.001217099781869

>  <JCHEM_PKA_STRONGEST_ACIDIC>  (1) 
3.843961977214112

>  <JCHEM_PKA_STRONGEST_BASIC>  (1) 
1.315778026966813

>  <JCHEM_POLAR_SURFACE_AREA>  (1) 
69.89

>  <JCHEM_REFRACTIVITY>  (1) 
38.292

>  <JCHEM_ROTATABLE_BOND_COUNT>  (1) 
3

>  <JCHEM_RULE_OF_FIVE>  (1) 
1

>  <JCHEM_TRADITIONAL_IUPAC>  (1) 
capen

>  <JCHEM_VEBER_RULE>  (1) 
0

>  <MOLECULAR_WEIGHT>  (1) 
163.19

>  <PRODUCTS>  (1) 
Thiola

>  <SMILES>  (1) 
CC(S)C(O)=NCC(O)=O

>  <SYNONYMS>  (1) 
alpha-mercaptopropionylglycine; Tiopronine

$$$$
