
     RDKit          2D

 48 50  0  0  1  0  0  0  0  0999 V2000
    5.3939    1.6094    0.0000 Cl  0  0  0  0  0  0  0  0  0  0  0  0
    3.0168    3.9691    0.0000 O   0  0  0  0  0  0  0  0  0  0  0  0
    4.3856    9.2177    0.0000 O   0  0  0  0  0  0  0  0  0  0  0  0
    1.5280    7.5679    0.0000 O   0  0  0  0  0  0  0  0  0  0  0  0
    2.9567    9.2177    0.0000 O   0  0  0  0  0  0  0  0  0  0  0  0
    2.2424    8.8052    0.0000 O   0  0  0  0  0  0  0  0  0  0  0  0
    1.6852    1.2041    0.0000 N   0  0  0  0  0  0  0  0  0  0  0  0
    2.6044    2.1620    0.0000 C   0  0  0  0  0  0  0  0  0  0  0  0
    1.8612    2.5199    0.0000 C   0  0  0  0  0  0  0  0  0  0  0  0
    2.4922    1.3497    0.0000 C   0  0  0  0  0  0  0  0  0  0  0  0
    1.2960    1.9258    0.0000 C   0  0  0  0  0  0  0  0  0  0  0  0
    3.3476    2.5199    0.0000 C   0  0  0  0  0  0  0  0  0  0  0  0
    1.6776    3.3242    0.0000 C   0  0  0  0  0  0  0  0  0  0  0  0
    1.3273    0.4607    0.0000 C   0  0  0  0  0  0  0  0  0  0  0  0
    3.5312    3.3242    0.0000 C   0  0  0  0  0  0  0  0  0  0  0  0
    2.1919    3.9691    0.0000 C   0  0  0  0  0  0  0  0  0  0  0  0
    3.9683    1.9259    0.0000 C   0  0  0  0  0  0  0  0  0  0  0  0
    0.8261    3.4391    0.0000 C   0  0  0  0  0  0  0  0  0  0  0  0
    4.3482    3.5901    0.0000 C   0  0  0  0  0  0  0  0  0  0  0  0
    1.8904    4.7737    0.0000 C   0  0  0  0  0  0  0  0  0  0  0  0
    4.7913    2.1727    0.0000 C   0  0  0  0  0  0  0  0  0  0  0  0
    0.5060    4.2365    0.0000 C   0  0  0  0  0  0  0  0  0  0  0  0
    4.9826    3.0104    0.0000 C   0  0  0  0  0  0  0  0  0  0  0  0
    1.0418    4.9083    0.0000 C   0  0  0  0  0  0  0  0  0  0  0  0
    3.6713    7.9803    0.0000 C   0  0  0  0  0  0  0  0  0  0  0  0
    2.9567    7.5679    0.0000 C   0  0  0  0  0  0  0  0  0  0  0  0
    3.6713    8.8052    0.0000 C   0  0  0  0  0  0  0  0  0  0  0  0
    2.2424    7.9803    0.0000 C   0  0  0  0  0  0  0  0  0  0  0  0
    0.0000    0.0000    0.0000 H   0  0  0  0  0  0  0  0  0  0  0  0
    0.0000    0.0000    0.0000 H   0  0  0  0  0  0  0  0  0  0  0  0
    0.0000    0.0000    0.0000 H   0  0  0  0  0  0  0  0  0  0  0  0
    0.0000    0.0000    0.0000 H   0  0  0  0  0  0  0  0  0  0  0  0
    0.0000    0.0000    0.0000 H   0  0  0  0  0  0  0  0  0  0  0  0
    0.0000    0.0000    0.0000 H   0  0  0  0  0  0  0  0  0  0  0  0
    0.0000    0.0000    0.0000 H   0  0  0  0  0  0  0  0  0  0  0  0
    0.0000    0.0000    0.0000 H   0  0  0  0  0  0  0  0  0  0  0  0
    0.0000    0.0000    0.0000 H   0  0  0  0  0  0  0  0  0  0  0  0
    0.0000    0.0000    0.0000 H   0  0  0  0  0  0  0  0  0  0  0  0
    0.0000    0.0000    0.0000 H   0  0  0  0  0  0  0  0  0  0  0  0
    0.0000    0.0000    0.0000 H   0  0  0  0  0  0  0  0  0  0  0  0
    0.0000    0.0000    0.0000 H   0  0  0  0  0  0  0  0  0  0  0  0
    0.0000    0.0000    0.0000 H   0  0  0  0  0  0  0  0  0  0  0  0
    0.0000    0.0000    0.0000 H   0  0  0  0  0  0  0  0  0  0  0  0
    0.0000    0.0000    0.0000 H   0  0  0  0  0  0  0  0  0  0  0  0
    0.0000    0.0000    0.0000 H   0  0  0  0  0  0  0  0  0  0  0  0
    0.0000    0.0000    0.0000 H   0  0  0  0  0  0  0  0  0  0  0  0
    0.0000    0.0000    0.0000 H   0  0  0  0  0  0  0  0  0  0  0  0
    0.0000    0.0000    0.0000 H   0  0  0  0  0  0  0  0  0  0  0  0
  1 21  1  0
  2 15  1  0
  2 16  1  0
  3 27  1  0
  4 28  1  0
  5 27  2  0
  6 28  2  0
  7 10  1  0
  7 11  1  0
  7 14  1  0
  8  9  1  0
  8 10  1  0
  8 12  1  0
  9 11  1  0
  9 13  1  0
 12 15  2  0
 12 17  1  0
 13 16  2  0
 13 18  1  0
 15 19  1  0
 16 20  1  0
 17 21  2  0
 18 22  2  0
 19 23  2  0
 20 24  2  0
 21 23  1  0
 22 24  1  0
 25 26  2  0
 25 27  1  0
 26 28  1  0
  3 29  1  0
  4 30  1  0
  8 31  1  0
  9 32  1  0
 10 33  1  0
 10 34  1  0
 11 35  1  0
 11 36  1  0
 14 37  1  0
 14 38  1  0
 14 39  1  0
 17 40  1  0
 18 41  1  0
 19 42  1  0
 20 43  1  0
 22 44  1  0
 23 45  1  0
 24 46  1  0
 25 47  1  0
 26 48  1  0
M  END
>  <DATABASE_ID>  (1) 
DB06216

>  <DATABASE_NAME>  (1) 
drugbank

>  <DRUGBANK_ID>  (1) 
DB06216

>  <DRUG_GROUPS>  (1) 
approved

>  <EXACT_MASS>  (1) 
401.103000462

>  <FORMULA>  (1) 
C21H20ClNO5

>  <GENERIC_NAME>  (1) 
Asenapine

>  <INCHI_IDENTIFIER>  (1) 
InChI=1S/C17H16ClNO.C4H4O4/c1-19-9-14-12-4-2-3-5-16(12)20-17-7-6-11(18)8-13(17)15(14)10-19;5-3(6)1-2-4(7)8/h2-8,14-15H,9-10H2,1H3;1-2H,(H,5,6)(H,7,8)/b;2-1-

>  <INCHI_KEY>  (1) 
GMDCDXMAFMEDAG-BTJKTKAUSA-N

>  <INTERNATIONAL_BRANDS>  (1) 
Sycrest 

>  <JCHEM_ACCEPTOR_COUNT>  (1) 
1

>  <JCHEM_AVERAGE_POLARIZABILITY>  (1) 
30.90320913111734

>  <JCHEM_BIOAVAILABILITY>  (1) 
1

>  <JCHEM_DONOR_COUNT>  (1) 
0

>  <JCHEM_FORMAL_CHARGE>  (1) 
0

>  <JCHEM_GHOSE_FILTER>  (1) 
1

>  <JCHEM_IUPAC>  (1) 
(2Z)-but-2-enedioic acid; 17-chloro-4-methyl-13-oxa-4-azatetracyclo[12.4.0.0²,⁶.0⁷,¹²]octadeca-1(14),7,9,11,15,17-hexaene

>  <JCHEM_LOGP>  (1) 
3.7246065736666667

>  <JCHEM_MDDR_LIKE_RULE>  (1) 
0

>  <JCHEM_NUMBER_OF_RINGS>  (1) 
4

>  <JCHEM_PHYSIOLOGICAL_CHARGE>  (1) 
1

>  <JCHEM_PKA_STRONGEST_BASIC>  (1) 
7.293865870488503

>  <JCHEM_POLAR_SURFACE_AREA>  (1) 
12.47

>  <JCHEM_REFRACTIVITY>  (1) 
81.64990000000002

>  <JCHEM_ROTATABLE_BOND_COUNT>  (1) 
2

>  <JCHEM_RULE_OF_FIVE>  (1) 
1

>  <JCHEM_TRADITIONAL_IUPAC>  (1) 
17-chloro-4-methyl-13-oxa-4-azatetracyclo[12.4.0.0²,⁶.0⁷,¹²]octadeca-1(14),7,9,11,15,17-hexaene; maleic acid

>  <JCHEM_VEBER_RULE>  (1) 
1

>  <MOLECULAR_WEIGHT>  (1) 
401.84

>  <PRODUCTS>  (1) 
Saphris; Sycrest

>  <SALTS>  (1) 
Asenapine Maleate

>  <SMILES>  (1) 
OC(=O)\C=C/C(O)=O.CN1CC2C(C1)C1=C(OC3=CC=CC=C23)C=CC(Cl)=C1

$$$$
