D27
     RDKit          2D

 41 42  0  0  0  0  0  0  0  0999 V2000
   71.7677    7.6818    0.0000 C   0  0  0  0  0  0  0  0  0  0  0  0
   71.0533    7.2693    0.0000 C   0  0  0  0  0  0  0  0  0  0  0  0
   71.7677    8.5068    0.0000 C   0  0  0  0  0  0  0  0  0  0  0  0
   70.3388    7.6818    0.0000 N   0  0  0  0  0  0  0  0  0  0  0  0
   69.6243    7.2693    0.0000 C   0  0  0  0  0  0  0  0  0  0  0  0
   68.9099    7.6818    0.0000 C   0  0  0  0  0  0  0  0  0  0  0  0
   66.0520    7.6818    0.0000 C   0  0  0  0  0  0  0  0  0  0  0  0
   68.1954    7.2693    0.0000 C   0  0  0  0  0  0  0  0  0  0  0  0
   66.0520    8.5068    0.0000 C   0  0  0  0  0  0  0  0  0  0  0  0
   66.7664    7.2693    0.0000 C   0  0  0  0  0  0  0  0  0  0  0  0
   71.0533    8.9193    0.0000 O   0  0  0  0  0  0  0  0  0  0  0  0
   69.6243    6.4443    0.0000 O   0  0  0  0  0  0  0  0  0  0  0  0
   67.4809    7.6818    0.0000 C   0  0  0  0  0  0  0  0  0  0  0  0
   66.7664    8.9193    0.0000 C   0  0  0  0  0  0  0  0  0  0  0  0
   72.4822    8.9193    0.0000 O   0  0  0  0  0  0  0  0  0  0  0  0
   67.4809    8.5068    0.0000 C   0  0  0  0  0  0  0  0  0  0  0  0
   65.3375    7.2693    0.0000 O   0  0  0  0  0  0  0  0  0  0  0  0
   72.4822    7.2693    0.0000 C   0  0  0  0  0  0  0  0  0  0  0  0
   65.3375    8.9193    0.0000 O   0  0  0  0  0  0  0  0  0  0  0  0
   71.0533    6.4443    0.0000 C   0  0  0  0  0  0  0  0  0  0  0  0
   65.3375    6.4443    0.0000 C   0  0  0  0  0  0  0  0  0  0  0  0
   64.6230    8.5068    0.0000 C   0  0  0  0  0  0  0  0  0  0  0  0
   72.4822    6.4443    0.0000 C   0  0  0  0  0  0  0  0  0  0  0  0
   71.7677    6.0318    0.0000 C   0  0  0  0  0  0  0  0  0  0  0  0
    0.0000    0.0000    0.0000 H   0  0  0  0  0  0  0  0  0  0  0  0
    0.0000    0.0000    0.0000 H   0  0  0  0  0  0  0  0  0  0  0  0
    0.0000    0.0000    0.0000 H   0  0  0  0  0  0  0  0  0  0  0  0
    0.0000    0.0000    0.0000 H   0  0  0  0  0  0  0  0  0  0  0  0
    0.0000    0.0000    0.0000 H   0  0  0  0  0  0  0  0  0  0  0  0
    0.0000    0.0000    0.0000 H   0  0  0  0  0  0  0  0  0  0  0  0
    0.0000    0.0000    0.0000 H   0  0  0  0  0  0  0  0  0  0  0  0
    0.0000    0.0000    0.0000 H   0  0  0  0  0  0  0  0  0  0  0  0
    0.0000    0.0000    0.0000 H   0  0  0  0  0  0  0  0  0  0  0  0
    0.0000    0.0000    0.0000 H   0  0  0  0  0  0  0  0  0  0  0  0
    0.0000    0.0000    0.0000 H   0  0  0  0  0  0  0  0  0  0  0  0
    0.0000    0.0000    0.0000 H   0  0  0  0  0  0  0  0  0  0  0  0
    0.0000    0.0000    0.0000 H   0  0  0  0  0  0  0  0  0  0  0  0
    0.0000    0.0000    0.0000 H   0  0  0  0  0  0  0  0  0  0  0  0
    0.0000    0.0000    0.0000 H   0  0  0  0  0  0  0  0  0  0  0  0
    0.0000    0.0000    0.0000 H   0  0  0  0  0  0  0  0  0  0  0  0
    0.0000    0.0000    0.0000 H   0  0  0  0  0  0  0  0  0  0  0  0
  1  2  2  0
  1  3  1  0
  1 18  1  0
  2  4  1  0
  2 20  1  0
  3 11  2  0
  3 15  1  0
  4  5  1  0
  5  6  1  0
  5 12  2  0
  6  8  2  0
  7  9  2  0
  7 10  1  0
  7 17  1  0
  8 13  1  0
  9 14  1  0
  9 19  1  0
 10 13  2  0
 13 16  1  0
 14 16  2  0
 17 21  1  0
 18 23  2  0
 19 22  1  0
 20 24  2  0
 23 24  1  0
  4 25  1  0
  6 26  1  0
  8 27  1  0
 10 28  1  0
 14 29  1  0
 15 30  1  0
 16 31  1  0
 18 32  1  0
 20 33  1  0
 21 34  1  0
 21 35  1  0
 21 36  1  0
 22 37  1  0
 22 38  1  0
 22 39  1  0
 23 40  1  0
 24 41  1  0
M  END
>  <ALOGPS_LOGP>  (1) 
2.89

>  <ALOGPS_LOGS>  (1) 
-4.59

>  <ALOGPS_SOLUBILITY>  (1) 
8.40e-03 g/l

>  <DATABASE_ID>  (1) 
DB07615

>  <DATABASE_NAME>  (1) 
drugbank

>  <DRUGBANK_ID>  (1) 
DB07615

>  <DRUG_GROUPS>  (1) 
approved; investigational

>  <EXACT_MASS>  (1) 
327.110672659

>  <FORMULA>  (1) 
C18H17NO5

>  <GENERIC_NAME>  (1) 
Tranilast

>  <INCHI_IDENTIFIER>  (1) 
InChI=1S/C18H17NO5/c1-23-15-9-7-12(11-16(15)24-2)8-10-17(20)19-14-6-4-3-5-13(14)18(21)22/h3-11H,1-2H3,(H,19,20)(H,21,22)/b10-8+

>  <INCHI_KEY>  (1) 
NZHGWWWHIYHZNX-CSKARUKUSA-N

>  <INTERNATIONAL_BRANDS>  (1) 
Rizaben

>  <JCHEM_ACCEPTOR_COUNT>  (1) 
5

>  <JCHEM_AVERAGE_POLARIZABILITY>  (1) 
34.204410027029795

>  <JCHEM_BIOAVAILABILITY>  (1) 
1

>  <JCHEM_DONOR_COUNT>  (1) 
2

>  <JCHEM_FORMAL_CHARGE>  (1) 
0

>  <JCHEM_GHOSE_FILTER>  (1) 
1

>  <JCHEM_IUPAC>  (1) 
2-[(2E)-3-(3,4-dimethoxyphenyl)prop-2-enamido]benzoic acid

>  <JCHEM_LOGP>  (1) 
3.5626285343333333

>  <JCHEM_MDDR_LIKE_RULE>  (1) 
0

>  <JCHEM_NUMBER_OF_RINGS>  (1) 
2

>  <JCHEM_PHYSIOLOGICAL_CHARGE>  (1) 
-1

>  <JCHEM_PKA>  (1) 
14.359298815013268

>  <JCHEM_PKA_STRONGEST_ACIDIC>  (1) 
3.5528402162392942

>  <JCHEM_PKA_STRONGEST_BASIC>  (1) 
-2.0491071535256444

>  <JCHEM_POLAR_SURFACE_AREA>  (1) 
84.86000000000001

>  <JCHEM_REFRACTIVITY>  (1) 
91.5198

>  <JCHEM_ROTATABLE_BOND_COUNT>  (1) 
6

>  <JCHEM_RULE_OF_FIVE>  (1) 
1

>  <JCHEM_TRADITIONAL_IUPAC>  (1) 
tranilast

>  <JCHEM_VEBER_RULE>  (1) 
0

>  <MOLECULAR_WEIGHT>  (1) 
327.3313

>  <SMILES>  (1) 
COC1=CC=C(\C=C\C(=O)NC2=CC=CC=C2C(O)=O)C=C1OC

>  <SYNONYMS>  (1) 
N-(3,4-Dimethoxycinnamoyl)anthranilic acid; tranilast; tranilastum

$$$$
