22425
     RDKit          2D

 53 56  0  0  0  0  0  0  0  0999 V2000
    3.8495   -3.9045    0.0000 S   0  0  0  0  0  0  0  0  0  0  0  0
    5.2784    1.0455    0.0000 O   0  0  0  0  0  0  0  0  0  0  0  0
    4.5640   -1.0170    0.0000 O   0  0  0  0  0  0  0  0  0  0  0  0
    3.1350   -1.0170    0.0000 O   0  0  0  0  0  0  0  0  0  0  0  0
    6.7073    2.6955    0.0000 N   0  0  0  0  0  0  0  0  0  0  0  0
    3.8495   -2.2545    0.0000 N   0  0  0  0  0  0  0  0  0  0  0  0
    5.3015   -2.2258    0.0000 N   0  0  0  0  0  0  0  0  0  0  0  0
    7.4219    2.2830    0.0000 C   0  0  0  0  0  0  0  0  0  0  0  0
    6.7073    3.5205    0.0000 C   0  0  0  0  0  0  0  0  0  0  0  0
    8.1363    2.6955    0.0000 C   0  0  0  0  0  0  0  0  0  0  0  0
    7.4219    3.9330    0.0000 C   0  0  0  0  0  0  0  0  0  0  0  0
    8.1363    3.5205    0.0000 C   0  0  0  0  0  0  0  0  0  0  0  0
    5.9929    2.2830    0.0000 C   0  0  0  0  0  0  0  0  0  0  0  0
    5.9929    1.4580    0.0000 C   0  0  0  0  0  0  0  0  0  0  0  0
    5.2784    0.2205    0.0000 C   0  0  0  0  0  0  0  0  0  0  0  0
    4.5640   -0.1920    0.0000 C   0  0  0  0  0  0  0  0  0  0  0  0
    3.1350   -2.6670    0.0000 C   0  0  0  0  0  0  0  0  0  0  0  0
    4.5640   -2.6670    0.0000 C   0  0  0  0  0  0  0  0  0  0  0  0
    3.1350   -3.4920    0.0000 C   0  0  0  0  0  0  0  0  0  0  0  0
    4.5640   -3.4920    0.0000 C   0  0  0  0  0  0  0  0  0  0  0  0
    3.8495   -1.4295    0.0000 C   0  0  0  0  0  0  0  0  0  0  0  0
    2.3975   -2.2258    0.0000 C   0  0  0  0  0  0  0  0  0  0  0  0
    2.3975   -3.9330    0.0000 C   0  0  0  0  0  0  0  0  0  0  0  0
    5.3015   -3.9330    0.0000 C   0  0  0  0  0  0  0  0  0  0  0  0
    1.6500   -2.6497    0.0000 C   0  0  0  0  0  0  0  0  0  0  0  0
    1.6500   -3.5091    0.0000 C   0  0  0  0  0  0  0  0  0  0  0  0
    6.0490   -3.5091    0.0000 C   0  0  0  0  0  0  0  0  0  0  0  0
    6.0490   -2.6497    0.0000 C   0  0  0  0  0  0  0  0  0  0  0  0
    0.0000    0.0000    0.0000 H   0  0  0  0  0  0  0  0  0  0  0  0
    0.0000    0.0000    0.0000 H   0  0  0  0  0  0  0  0  0  0  0  0
    0.0000    0.0000    0.0000 H   0  0  0  0  0  0  0  0  0  0  0  0
    0.0000    0.0000    0.0000 H   0  0  0  0  0  0  0  0  0  0  0  0
    0.0000    0.0000    0.0000 H   0  0  0  0  0  0  0  0  0  0  0  0
    0.0000    0.0000    0.0000 H   0  0  0  0  0  0  0  0  0  0  0  0
    0.0000    0.0000    0.0000 H   0  0  0  0  0  0  0  0  0  0  0  0
    0.0000    0.0000    0.0000 H   0  0  0  0  0  0  0  0  0  0  0  0
    0.0000    0.0000    0.0000 H   0  0  0  0  0  0  0  0  0  0  0  0
    0.0000    0.0000    0.0000 H   0  0  0  0  0  0  0  0  0  0  0  0
    0.0000    0.0000    0.0000 H   0  0  0  0  0  0  0  0  0  0  0  0
    0.0000    0.0000    0.0000 H   0  0  0  0  0  0  0  0  0  0  0  0
    0.0000    0.0000    0.0000 H   0  0  0  0  0  0  0  0  0  0  0  0
    0.0000    0.0000    0.0000 H   0  0  0  0  0  0  0  0  0  0  0  0
    0.0000    0.0000    0.0000 H   0  0  0  0  0  0  0  0  0  0  0  0
    0.0000    0.0000    0.0000 H   0  0  0  0  0  0  0  0  0  0  0  0
    0.0000    0.0000    0.0000 H   0  0  0  0  0  0  0  0  0  0  0  0
    0.0000    0.0000    0.0000 H   0  0  0  0  0  0  0  0  0  0  0  0
    0.0000    0.0000    0.0000 H   0  0  0  0  0  0  0  0  0  0  0  0
    0.0000    0.0000    0.0000 H   0  0  0  0  0  0  0  0  0  0  0  0
    0.0000    0.0000    0.0000 H   0  0  0  0  0  0  0  0  0  0  0  0
    0.0000    0.0000    0.0000 H   0  0  0  0  0  0  0  0  0  0  0  0
    0.0000    0.0000    0.0000 H   0  0  0  0  0  0  0  0  0  0  0  0
    0.0000    0.0000    0.0000 H   0  0  0  0  0  0  0  0  0  0  0  0
    0.0000    0.0000    0.0000 H   0  0  0  0  0  0  0  0  0  0  0  0
  1 19  1  0
  1 20  1  0
  2 14  1  0
  2 15  1  0
  3 16  1  0
  3 21  1  0
  4 21  2  0
  5  8  1  0
  5  9  1  0
  5 13  1  0
  6 17  1  0
  6 18  1  0
  6 21  1  0
  7 18  1  0
  7 28  2  0
  8 10  1  0
  9 11  1  0
 10 12  1  0
 11 12  1  0
 13 14  1  0
 15 16  1  0
 17 19  2  0
 17 22  1  0
 18 20  2  0
 19 23  1  0
 20 24  1  0
 22 25  2  0
 23 26  2  0
 24 27  2  0
 25 26  1  0
 27 28  1  0
  8 29  1  0
  8 30  1  0
  9 31  1  0
  9 32  1  0
 10 33  1  0
 10 34  1  0
 11 35  1  0
 11 36  1  0
 12 37  1  0
 12 38  1  0
 13 39  1  0
 13 40  1  0
 14 41  1  0
 14 42  1  0
 15 43  1  0
 15 44  1  0
 16 45  1  0
 16 46  1  0
 22 47  1  0
 23 48  1  0
 24 49  1  0
 25 50  1  0
 26 51  1  0
 27 52  1  0
 28 53  1  0
M  END
>  <ALOGPS_LOGP>  (1) 
3.40

>  <ALOGPS_LOGS>  (1) 
-3.98

>  <ALOGPS_SOLUBILITY>  (1) 
4.15e-02 g/l

>  <DATABASE_ID>  (1) 
DB08796

>  <DATABASE_NAME>  (1) 
drugbank

>  <DRUGBANK_ID>  (1) 
DB08796

>  <DRUG_GROUPS>  (1) 
approved

>  <EXACT_MASS>  (1) 
399.161662371

>  <FORMULA>  (1) 
C21H25N3O3S

>  <GENERIC_NAME>  (1) 
Pipazethate

>  <INCHI_IDENTIFIER>  (1) 
InChI=1S/C21H25N3O3S/c25-21(27-16-15-26-14-13-23-11-4-1-5-12-23)24-17-7-2-3-8-18(17)28-19-9-6-10-22-20(19)24/h2-3,6-10H,1,4-5,11-16H2

>  <INCHI_KEY>  (1) 
DTVJXCOMJLLMAK-UHFFFAOYSA-N

>  <INTERNATIONAL_BRANDS>  (1) 
Theratuss

>  <JCHEM_ACCEPTOR_COUNT>  (1) 
5

>  <JCHEM_AVERAGE_POLARIZABILITY>  (1) 
42.86337211393993

>  <JCHEM_BIOAVAILABILITY>  (1) 
1

>  <JCHEM_DONOR_COUNT>  (1) 
0

>  <JCHEM_FORMAL_CHARGE>  (1) 
0

>  <JCHEM_GHOSE_FILTER>  (1) 
1

>  <JCHEM_IUPAC>  (1) 
2-[2-(piperidin-1-yl)ethoxy]ethyl 9-thia-2,4-diazatricyclo[8.4.0.0³,⁸]tetradeca-1(14),3(8),4,6,10,12-hexaene-2-carboxylate

>  <JCHEM_LOGP>  (1) 
3.766595732999999

>  <JCHEM_MDDR_LIKE_RULE>  (1) 
1

>  <JCHEM_NUMBER_OF_RINGS>  (1) 
4

>  <JCHEM_PHYSIOLOGICAL_CHARGE>  (1) 
1

>  <JCHEM_PKA_STRONGEST_BASIC>  (1) 
8.963372545950813

>  <JCHEM_POLAR_SURFACE_AREA>  (1) 
54.900000000000006

>  <JCHEM_REFRACTIVITY>  (1) 
111.42540000000002

>  <JCHEM_ROTATABLE_BOND_COUNT>  (1) 
7

>  <JCHEM_RULE_OF_FIVE>  (1) 
1

>  <JCHEM_TRADITIONAL_IUPAC>  (1) 
pipazethate

>  <JCHEM_VEBER_RULE>  (1) 
0

>  <MOLECULAR_WEIGHT>  (1) 
399.507

>  <SMILES>  (1) 
O=C(OCCOCCN1CCCCC1)N1C2=CC=CC=C2SC2=C1N=CC=C2

$$$$
