
     RDKit          2D

102102  0  0  0  0  0  0  0  0999 V2000
    4.4675    2.5381    0.0000 C   0  0  0  0  0  0  0  0  0  0  0  0
    5.7788    1.9703    0.0000 C   0  0  0  0  0  0  0  0  0  0  0  0
    2.6645   -3.4238    0.0000 C   0  0  0  0  0  0  0  0  0  0  0  0
    3.8119   -2.5720    0.0000 C   0  0  0  0  0  0  0  0  0  0  0  0
    0.8615    1.4025    0.0000 C   0  0  0  0  0  0  0  0  0  0  0  0
   -0.2858    0.5508    0.0000 C   0  0  0  0  0  0  0  0  0  0  0  0
    4.1397   -1.8150    0.0000 C   0  0  0  0  0  0  0  0  0  0  0  0
    5.2871   -0.9633    0.0000 C   0  0  0  0  0  0  0  0  0  0  0  0
    2.3367    3.0113    0.0000 C   0  0  0  0  0  0  0  0  0  0  0  0
    1.1893    2.1595    0.0000 C   0  0  0  0  0  0  0  0  0  0  0  0
    0.5337   -2.9506    0.0000 C   0  0  0  0  0  0  0  0  0  0  0  0
   -0.7775   -2.3828    0.0000 C   0  0  0  0  0  0  0  0  0  0  0  0
    5.9427    0.5508    0.0000 C   0  0  0  0  0  0  0  0  0  0  0  0
    1.3448    1.5650    0.0000 C   0  0  0  0  0  0  0  0  0  0  0  0
    1.3532   -2.8560    0.0000 C   0  0  0  0  0  0  0  0  0  0  0  0
    4.9593    1.8756    0.0000 C   0  0  0  0  0  0  0  0  0  0  0  0
    2.9923   -2.6667    0.0000 C   0  0  0  0  0  0  0  0  0  0  0  0
    0.5337    0.6454    0.0000 C   0  0  0  0  0  0  0  0  0  0  0  0
    4.4675   -1.0579    0.0000 C   0  0  0  0  0  0  0  0  0  0  0  0
    2.0089    2.2542    0.0000 C   0  0  0  0  0  0  0  0  0  0  0  0
    0.0419   -2.2881    0.0000 C   0  0  0  0  0  0  0  0  0  0  0  0
    4.6314    1.1186    0.0000 C   0  0  0  0  0  0  0  0  0  0  0  0
    2.5006   -2.0042    0.0000 C   0  0  0  0  0  0  0  0  0  0  0  0
    1.0254   -0.0169    0.0000 C   0  0  0  0  0  0  0  0  0  0  0  0
    3.9758   -0.3955    0.0000 C   0  0  0  0  0  0  0  0  0  0  0  0
    2.5006    1.5917    0.0000 C   0  0  0  0  0  0  0  0  0  0  0  0
    0.3698   -1.5311    0.0000 C   0  0  0  0  0  0  0  0  0  0  0  0
    4.7954   -0.3008    0.0000 C   0  0  0  0  0  0  0  0  0  0  0  0
    2.1728    0.8347    0.0000 C   0  0  0  0  0  0  0  0  0  0  0  0
    1.1893   -1.4364    0.0000 C   0  0  0  0  0  0  0  0  0  0  0  0
    3.8119    1.0239    0.0000 C   0  0  0  0  0  0  0  0  0  0  0  0
    2.8284   -1.2472    0.0000 C   0  0  0  0  0  0  0  0  0  0  0  0
    0.2058   -0.1116    0.0000 C   0  0  0  0  0  0  0  0  0  0  0  0
    5.1232    0.4561    0.0000 N   0  0  0  0  0  0  0  0  0  0  0  0
    1.3532    0.7400    0.0000 N   0  0  0  0  0  0  0  0  0  0  0  0
    1.6810   -2.0989    0.0000 N   0  0  0  0  0  0  0  0  0  0  0  0
    5.5825   -0.5477    0.0000 O   0  0  0  0  0  0  0  0  0  0  0  0
    2.6645    0.1722    0.0000 O   0  0  0  0  0  0  0  0  0  0  0  0
    1.5171   -0.6794    0.0000 O   0  0  0  0  0  0  0  0  0  0  0  0
    3.4841    0.2669    0.0000 O   0  0  0  0  0  0  0  0  0  0  0  0
    2.3367   -0.5847    0.0000 O   0  0  0  0  0  0  0  0  0  0  0  0
   -0.5812    0.1352    0.0000 O   0  0  0  0  0  0  0  0  0  0  0  0
    3.3202    1.6864    0.0000 O   0  0  0  0  0  0  0  0  0  0  0  0
    3.6480   -1.1525    0.0000 O   0  0  0  0  0  0  0  0  0  0  0  0
   -0.1219   -0.8686    0.0000 O   0  0  0  0  0  0  0  0  0  0  0  0
    0.0000    0.0000    0.0000 H   0  0  0  0  0  0  0  0  0  0  0  0
    0.0000    0.0000    0.0000 H   0  0  0  0  0  0  0  0  0  0  0  0
    0.0000    0.0000    0.0000 H   0  0  0  0  0  0  0  0  0  0  0  0
    0.0000    0.0000    0.0000 H   0  0  0  0  0  0  0  0  0  0  0  0
    0.0000    0.0000    0.0000 H   0  0  0  0  0  0  0  0  0  0  0  0
    0.0000    0.0000    0.0000 H   0  0  0  0  0  0  0  0  0  0  0  0
    0.0000    0.0000    0.0000 H   0  0  0  0  0  0  0  0  0  0  0  0
    0.0000    0.0000    0.0000 H   0  0  0  0  0  0  0  0  0  0  0  0
    0.0000    0.0000    0.0000 H   0  0  0  0  0  0  0  0  0  0  0  0
    0.0000    0.0000    0.0000 H   0  0  0  0  0  0  0  0  0  0  0  0
    0.0000    0.0000    0.0000 H   0  0  0  0  0  0  0  0  0  0  0  0
    0.0000    0.0000    0.0000 H   0  0  0  0  0  0  0  0  0  0  0  0
    0.0000    0.0000    0.0000 H   0  0  0  0  0  0  0  0  0  0  0  0
    0.0000    0.0000    0.0000 H   0  0  0  0  0  0  0  0  0  0  0  0
    0.0000    0.0000    0.0000 H   0  0  0  0  0  0  0  0  0  0  0  0
    0.0000    0.0000    0.0000 H   0  0  0  0  0  0  0  0  0  0  0  0
    0.0000    0.0000    0.0000 H   0  0  0  0  0  0  0  0  0  0  0  0
    0.0000    0.0000    0.0000 H   0  0  0  0  0  0  0  0  0  0  0  0
    0.0000    0.0000    0.0000 H   0  0  0  0  0  0  0  0  0  0  0  0
    0.0000    0.0000    0.0000 H   0  0  0  0  0  0  0  0  0  0  0  0
    0.0000    0.0000    0.0000 H   0  0  0  0  0  0  0  0  0  0  0  0
    0.0000    0.0000    0.0000 H   0  0  0  0  0  0  0  0  0  0  0  0
    0.0000    0.0000    0.0000 H   0  0  0  0  0  0  0  0  0  0  0  0
    0.0000    0.0000    0.0000 H   0  0  0  0  0  0  0  0  0  0  0  0
    0.0000    0.0000    0.0000 H   0  0  0  0  0  0  0  0  0  0  0  0
    0.0000    0.0000    0.0000 H   0  0  0  0  0  0  0  0  0  0  0  0
    0.0000    0.0000    0.0000 H   0  0  0  0  0  0  0  0  0  0  0  0
    0.0000    0.0000    0.0000 H   0  0  0  0  0  0  0  0  0  0  0  0
    0.0000    0.0000    0.0000 H   0  0  0  0  0  0  0  0  0  0  0  0
    0.0000    0.0000    0.0000 H   0  0  0  0  0  0  0  0  0  0  0  0
    0.0000    0.0000    0.0000 H   0  0  0  0  0  0  0  0  0  0  0  0
    0.0000    0.0000    0.0000 H   0  0  0  0  0  0  0  0  0  0  0  0
    0.0000    0.0000    0.0000 H   0  0  0  0  0  0  0  0  0  0  0  0
    0.0000    0.0000    0.0000 H   0  0  0  0  0  0  0  0  0  0  0  0
    0.0000    0.0000    0.0000 H   0  0  0  0  0  0  0  0  0  0  0  0
    0.0000    0.0000    0.0000 H   0  0  0  0  0  0  0  0  0  0  0  0
    0.0000    0.0000    0.0000 H   0  0  0  0  0  0  0  0  0  0  0  0
    0.0000    0.0000    0.0000 H   0  0  0  0  0  0  0  0  0  0  0  0
    0.0000    0.0000    0.0000 H   0  0  0  0  0  0  0  0  0  0  0  0
    0.0000    0.0000    0.0000 H   0  0  0  0  0  0  0  0  0  0  0  0
    0.0000    0.0000    0.0000 H   0  0  0  0  0  0  0  0  0  0  0  0
    0.0000    0.0000    0.0000 H   0  0  0  0  0  0  0  0  0  0  0  0
    0.0000    0.0000    0.0000 H   0  0  0  0  0  0  0  0  0  0  0  0
    0.0000    0.0000    0.0000 H   0  0  0  0  0  0  0  0  0  0  0  0
    0.0000    0.0000    0.0000 H   0  0  0  0  0  0  0  0  0  0  0  0
    0.0000    0.0000    0.0000 H   0  0  0  0  0  0  0  0  0  0  0  0
    0.0000    0.0000    0.0000 H   0  0  0  0  0  0  0  0  0  0  0  0
    0.0000    0.0000    0.0000 H   0  0  0  0  0  0  0  0  0  0  0  0
    0.0000    0.0000    0.0000 H   0  0  0  0  0  0  0  0  0  0  0  0
    0.0000    0.0000    0.0000 H   0  0  0  0  0  0  0  0  0  0  0  0
    0.0000    0.0000    0.0000 H   0  0  0  0  0  0  0  0  0  0  0  0
    0.0000    0.0000    0.0000 H   0  0  0  0  0  0  0  0  0  0  0  0
    0.0000    0.0000    0.0000 H   0  0  0  0  0  0  0  0  0  0  0  0
    0.0000    0.0000    0.0000 H   0  0  0  0  0  0  0  0  0  0  0  0
    0.0000    0.0000    0.0000 H   0  0  0  0  0  0  0  0  0  0  0  0
    0.0000    0.0000    0.0000 H   0  0  0  0  0  0  0  0  0  0  0  0
    0.0000    0.0000    0.0000 H   0  0  0  0  0  0  0  0  0  0  0  0
 16  1  1  0
 16  2  1  0
 17  3  1  0
 17  4  1  0
 18  5  1  0
 18  6  1  0
 19  7  1  0
 19  8  1  0
 20  9  1  0
 20 10  1  0
 21 11  1  0
 21 12  1  0
 22 16  1  1
 23 17  1  1
 24 18  1  6
 25 19  1  0
 26 20  1  0
 27 21  1  0
 28 25  1  0
 29 26  1  0
 30 27  1  0
 31 22  1  0
 32 23  1  0
 33 24  1  0
 34 13  1  0
 34 22  1  0
 34 28  1  0
 35 14  1  0
 35 24  1  0
 35 29  1  0
 36 15  1  0
 36 23  1  0
 36 30  1  0
 37 28  2  0
 38 29  2  0
 39 30  2  0
 40 31  2  0
 41 32  2  0
 42 33  2  0
 43 26  1  0
 43 31  1  0
 44 25  1  0
 44 32  1  0
 45 27  1  0
 45 33  1  0
  1 46  1  0
  1 47  1  0
  1 48  1  0
  2 49  1  0
  2 50  1  0
  2 51  1  0
  3 52  1  0
  3 53  1  0
  3 54  1  0
  4 55  1  0
  4 56  1  0
  4 57  1  0
  5 58  1  0
  5 59  1  0
  5 60  1  0
  6 61  1  0
  6 62  1  0
  6 63  1  0
  7 64  1  0
  7 65  1  0
  7 66  1  0
  8 67  1  0
  8 68  1  0
  8 69  1  0
  9 70  1  0
  9 71  1  0
  9 72  1  0
 10 73  1  0
 10 74  1  0
 10 75  1  0
 11 76  1  0
 11 77  1  0
 11 78  1  0
 12 79  1  0
 12 80  1  0
 12 81  1  0
 13 82  1  0
 13 83  1  0
 13 84  1  0
 14 85  1  0
 14 86  1  0
 14 87  1  0
 15 88  1  0
 15 89  1  0
 15 90  1  0
 16 91  1  0
 17 92  1  0
 18 93  1  0
 19 94  1  0
 20 95  1  0
 21 96  1  0
 22 97  1  0
 23 98  1  0
 24 99  1  0
 25100  1  0
 26101  1  0
 27102  1  0
M  END
>  <ALOGPS_LOGP>  (1) 
3.81

>  <ALOGPS_LOGS>  (1) 
-4.54

>  <ALOGPS_SOLUBILITY>  (1) 
1.84e-02 g/l

>  <DATABASE_ID>  (1) 
DB08965

>  <DATABASE_NAME>  (1) 
drugbank

>  <DRUGBANK_ID>  (1) 
DB08965

>  <DRUG_GROUPS>  (1) 
approved; withdrawn

>  <EXACT_MASS>  (1) 
639.409480437

>  <FORMULA>  (1) 
C33H57N3O9

>  <GENERIC_NAME>  (1) 
Fusafungine

>  <INCHI_IDENTIFIER>  (1) 
InChI=1S/C33H57N3O9/c1-16(2)22-31(40)43-26(20(9)10)29(38)35(14)24(18(5)6)33(42)45-27(21(11)12)30(39)36(15)23(17(3)4)32(41)44-25(19(7)8)28(37)34(22)13/h16-27H,1-15H3/t22-,23-,24-,25?,26?,27?/m0/s1

>  <INCHI_KEY>  (1) 
MIZMDSVSLSIMSC-OGLSAIDSSA-N

>  <JCHEM_ACCEPTOR_COUNT>  (1) 
6

>  <JCHEM_AVERAGE_POLARIZABILITY>  (1) 
69.2691140028898

>  <JCHEM_BIOAVAILABILITY>  (1) 
1

>  <JCHEM_DONOR_COUNT>  (1) 
0

>  <JCHEM_FORMAL_CHARGE>  (1) 
0

>  <JCHEM_GHOSE_FILTER>  (1) 
0

>  <JCHEM_IUPAC>  (1) 
(3S,9S,15S)-4,10,16-trimethyl-3,6,9,12,15,18-hexakis(propan-2-yl)-1,7,13-trioxa-4,10,16-triazacyclooctadecane-2,5,8,11,14,17-hexone

>  <JCHEM_LOGP>  (1) 
4.964367353

>  <JCHEM_MDDR_LIKE_RULE>  (1) 
0

>  <JCHEM_NUMBER_OF_RINGS>  (1) 
1

>  <JCHEM_PHYSIOLOGICAL_CHARGE>  (1) 
0

>  <JCHEM_PKA>  (1) 
19.2792958962065

>  <JCHEM_PKA_STRONGEST_ACIDIC>  (1) 
18.8019123820987

>  <JCHEM_PKA_STRONGEST_BASIC>  (1) 
-5.404252844249662

>  <JCHEM_POLAR_SURFACE_AREA>  (1) 
139.82999999999998

>  <JCHEM_REFRACTIVITY>  (1) 
166.59870000000015

>  <JCHEM_ROTATABLE_BOND_COUNT>  (1) 
6

>  <JCHEM_RULE_OF_FIVE>  (1) 
0

>  <JCHEM_TRADITIONAL_IUPAC>  (1) 
(3S,9S,15S)-3,6,9,12,15,18-hexaisopropyl-4,10,16-trimethyl-1,7,13-trioxa-4,10,16-triazacyclooctadecane-2,5,8,11,14,17-hexone

>  <JCHEM_VEBER_RULE>  (1) 
0

>  <MOLECULAR_WEIGHT>  (1) 
639.8204

>  <SMILES>  (1) 
[H]C1(OC(=O)[C@]([H])(C(C)C)N(C)C(=O)C([H])(OC(=O)[C@]([H])(C(C)C)N(C)C(=O)C([H])(OC(=O)[C@]([H])(C(C)C)N(C)C1=O)C(C)C)C(C)C)C(C)C

$$$$
