
     RDKit          2D

 30 32  0  0  0  0  0  0  0  0999 V2000
    0.8352   -1.9873    0.0000 N   0  0  0  0  0  0  0  0  0  0  0  0
    1.5026   -2.4722    0.0000 C   0  0  0  0  0  0  0  0  0  0  0  0
    1.2477   -3.2568    0.0000 C   0  0  0  0  0  0  0  0  0  0  0  0
    0.4227   -3.2568    0.0000 N   0  0  0  0  0  0  0  0  0  0  0  0
    0.1676   -2.4722    0.0000 C   0  0  0  0  0  0  0  0  0  0  0  0
    0.8352   -1.1623    0.0000 C   0  0  0  0  0  0  0  0  0  0  0  0
    0.1207   -0.7498    0.0000 C   0  0  0  0  0  0  0  0  0  0  0  0
    1.5497   -0.7498    0.0000 C   0  0  0  0  0  0  0  0  0  0  0  0
   -0.7724    0.2421    0.0000 C   0  0  0  0  0  0  0  0  0  0  0  0
    0.0345    0.0706    0.0000 S   0  0  0  0  0  0  0  0  0  0  0  0
   -0.6329   -1.0854    0.0000 S   0  0  0  0  0  0  0  0  0  0  0  0
   -1.1850   -0.4723    0.0000 C   0  0  0  0  0  0  0  0  0  0  0  0
   -1.1080    0.9958    0.0000 C   0  0  0  0  0  0  0  0  0  0  0  0
   -0.9586    2.4169    0.0000 C   0  0  0  0  0  0  0  0  0  0  0  0
   -0.6230    1.6632    0.0000 C   0  0  0  0  0  0  0  0  0  0  0  0
   -1.9284    1.0820    0.0000 C   0  0  0  0  0  0  0  0  0  0  0  0
   -2.2641    1.8357    0.0000 C   0  0  0  0  0  0  0  0  0  0  0  0
   -1.7791    2.5031    0.0000 C   0  0  0  0  0  0  0  0  0  0  0  0
    0.1972    1.5770    0.0000 Cl  0  0  0  0  0  0  0  0  0  0  0  0
   -2.1147    3.2568    0.0000 Cl  0  0  0  0  0  0  0  0  0  0  0  0
    2.2641   -0.3373    0.0000 N   0  0  0  0  0  0  0  0  0  0  0  0
    0.0000    0.0000    0.0000 H   0  0  0  0  0  0  0  0  0  0  0  0
    0.0000    0.0000    0.0000 H   0  0  0  0  0  0  0  0  0  0  0  0
    0.0000    0.0000    0.0000 H   0  0  0  0  0  0  0  0  0  0  0  0
    0.0000    0.0000    0.0000 H   0  0  0  0  0  0  0  0  0  0  0  0
    0.0000    0.0000    0.0000 H   0  0  0  0  0  0  0  0  0  0  0  0
    0.0000    0.0000    0.0000 H   0  0  0  0  0  0  0  0  0  0  0  0
    0.0000    0.0000    0.0000 H   0  0  0  0  0  0  0  0  0  0  0  0
    0.0000    0.0000    0.0000 H   0  0  0  0  0  0  0  0  0  0  0  0
    0.0000    0.0000    0.0000 H   0  0  0  0  0  0  0  0  0  0  0  0
  1  2  1  0
  1  5  1  0
  2  3  2  0
  3  4  1  0
  4  5  2  0
  1  6  1  0
  6  7  2  0
  6  8  1  0
 10  7  1  0
  7 11  1  0
  9 10  1  0
  9 12  1  0
 11 12  1  0
  9 13  1  6
 15 13  1  0
 13 16  2  0
 14 15  2  0
 14 18  1  0
 16 17  1  0
 17 18  2  0
 15 19  1  0
 18 20  1  0
  8 21  3  0
  2 22  1  0
  3 23  1  0
  5 24  1  0
  9 25  1  0
 12 26  1  0
 12 27  1  0
 14 28  1  0
 16 29  1  0
 17 30  1  0
M  END
>  <ALOGPS_LOGP>  (1) 
4.27

>  <ALOGPS_LOGS>  (1) 
-3.73

>  <ALOGPS_SOLUBILITY>  (1) 
6.59e-02 g/l

>  <DATABASE_ID>  (1) 
DB08933

>  <DATABASE_NAME>  (1) 
drugbank

>  <DRUGBANK_ID>  (1) 
DB08933

>  <DRUG_GROUPS>  (1) 
approved

>  <EXACT_MASS>  (1) 
352.961495

>  <FORMULA>  (1) 
C14H9Cl2N3S2

>  <GENERIC_NAME>  (1) 
Luliconazole

>  <INCHI_IDENTIFIER>  (1) 
InChI=1S/C14H9Cl2N3S2/c15-9-1-2-10(11(16)5-9)13-7-20-14(21-13)12(6-17)19-4-3-18-8-19/h1-5,8,13H,7H2/b14-12+/t13-/m0/s1

>  <INCHI_KEY>  (1) 
YTAOBBFIOAEMLL-REQDGWNSSA-N

>  <INTERNATIONAL_BRANDS>  (1) 
Lulicon

>  <JCHEM_ACCEPTOR_COUNT>  (1) 
2

>  <JCHEM_ATOM_COUNT>  (1) 
30

>  <JCHEM_AVERAGE_POLARIZABILITY>  (1) 
33.65139842697815

>  <JCHEM_BIOAVAILABILITY>  (1) 
1

>  <JCHEM_DONOR_COUNT>  (1) 
0

>  <JCHEM_FORMAL_CHARGE>  (1) 
0

>  <JCHEM_GHOSE_FILTER>  (1) 
1

>  <JCHEM_IUPAC>  (1) 
2-[(2E,4R)-4-(2,4-dichlorophenyl)-1,3-dithiolan-2-ylidene]-2-(1H-imidazol-1-yl)acetonitrile

>  <JCHEM_LOGP>  (1) 
4.069960693666666

>  <JCHEM_MDDR_LIKE_RULE>  (1) 
0

>  <JCHEM_NUMBER_OF_RINGS>  (1) 
3

>  <JCHEM_PHYSIOLOGICAL_CHARGE>  (1) 
0

>  <JCHEM_PKA_STRONGEST_BASIC>  (1) 
6.342156685632852

>  <JCHEM_POLAR_SURFACE_AREA>  (1) 
41.61

>  <JCHEM_REFRACTIVITY>  (1) 
101.00049999999999

>  <JCHEM_ROTATABLE_BOND_COUNT>  (1) 
2

>  <JCHEM_RULE_OF_FIVE>  (1) 
1

>  <JCHEM_TRADITIONAL_IUPAC>  (1) 
luliconazole

>  <JCHEM_VEBER_RULE>  (1) 
0

>  <MOLECULAR_WEIGHT>  (1) 
354.27

>  <PRODUCTS>  (1) 
Luzu

>  <SMILES>  (1) 
ClC1=CC(Cl)=C(C=C1)[C@@H]1CS\C(S1)=C(\C#N)N1C=CN=C1

$$$$
