
     RDKit          2D

 61 65  0  0  0  0  0  0  0  0999 V2000
   -3.2176    1.9800    0.0000 C   0  0  0  0  0  0  0  0  0  0  0  0
   -3.2176    1.1550    0.0000 C   0  0  0  0  0  0  0  0  0  0  0  0
   -3.9189    0.7425    0.0000 C   0  0  0  0  0  0  0  0  0  0  0  0
   -4.6614    1.1550    0.0000 C   0  0  0  0  0  0  0  0  0  0  0  0
   -4.6614    1.9800    0.0000 C   0  0  0  0  0  0  0  0  0  0  0  0
   -3.9189    2.3926    0.0000 N   0  0  0  0  0  0  0  0  0  0  0  0
   -2.5163    2.3926    0.0000 C   0  0  0  0  0  0  0  0  0  0  0  0
   -1.7738    1.9800    0.0000 C   0  0  0  0  0  0  0  0  0  0  0  0
   -1.7738    1.1550    0.0000 C   0  0  0  0  0  0  0  0  0  0  0  0
   -2.5163    0.7425    0.0000 C   0  0  0  0  0  0  0  0  0  0  0  0
   -1.0725    2.3926    0.0000 O   0  0  0  0  0  0  0  0  0  0  0  0
   -0.3712    1.9800    0.0000 C   0  0  0  0  0  0  0  0  0  0  0  0
   -1.0725    0.7425    0.0000 O   0  0  0  0  0  0  0  0  0  0  0  0
   -0.3712    1.1550    0.0000 C   0  0  0  0  0  0  0  0  0  0  0  0
   -3.9189   -0.0824    0.0000 O   0  0  0  0  0  0  0  0  0  0  0  0
   -3.1763   -0.4950    0.0000 C   0  0  0  0  0  0  0  0  0  0  0  0
   -3.1763   -1.3201    0.0000 C   0  0  0  0  0  0  0  0  0  0  0  0
   -2.4750   -1.7326    0.0000 C   0  0  0  0  0  0  0  0  0  0  0  0
   -1.7738   -1.3201    0.0000 C   0  0  0  0  0  0  0  0  0  0  0  0
   -1.7738   -0.4537    0.0000 C   0  0  0  0  0  0  0  0  0  0  0  0
   -2.4750   -0.0412    0.0000 C   0  0  0  0  0  0  0  0  0  0  0  0
   -1.0313   -1.6913    0.0000 N   0  0  0  0  0  0  0  0  0  0  0  0
   -0.3300   -1.2788    0.0000 C   0  0  0  0  0  0  0  0  0  0  0  0
    0.4125   -1.6913    0.0000 C   0  0  0  0  0  0  0  0  0  0  0  0
   -0.3300   -0.4537    0.0000 O   0  0  0  0  0  0  0  0  0  0  0  0
    1.1138   -1.2375    0.0000 C   0  0  0  0  0  0  0  0  0  0  0  0
    1.8151   -1.6500    0.0000 N   0  0  0  0  0  0  0  0  0  0  0  0
    1.1138   -0.4125    0.0000 O   0  0  0  0  0  0  0  0  0  0  0  0
    2.5163   -1.2375    0.0000 C   0  0  0  0  0  0  0  0  0  0  0  0
    3.2589   -1.6500    0.0000 C   0  0  0  0  0  0  0  0  0  0  0  0
    3.9189   -1.1963    0.0000 C   0  0  0  0  0  0  0  0  0  0  0  0
    3.9189   -0.3713    0.0000 C   0  0  0  0  0  0  0  0  0  0  0  0
    3.2176    0.0000    0.0000 C   0  0  0  0  0  0  0  0  0  0  0  0
    2.5163   -0.4125    0.0000 C   0  0  0  0  0  0  0  0  0  0  0  0
    4.6615    0.0000    0.0000 F   0  0  0  0  0  0  0  0  0  0  0  0
    0.0000   -2.3926    0.0000 C   0  0  0  0  0  0  0  0  0  0  0  0
    0.8250   -2.3926    0.0000 C   0  0  0  0  0  0  0  0  0  0  0  0
    0.0000    0.0000    0.0000 H   0  0  0  0  0  0  0  0  0  0  0  0
    0.0000    0.0000    0.0000 H   0  0  0  0  0  0  0  0  0  0  0  0
    0.0000    0.0000    0.0000 H   0  0  0  0  0  0  0  0  0  0  0  0
    0.0000    0.0000    0.0000 H   0  0  0  0  0  0  0  0  0  0  0  0
    0.0000    0.0000    0.0000 H   0  0  0  0  0  0  0  0  0  0  0  0
    0.0000    0.0000    0.0000 H   0  0  0  0  0  0  0  0  0  0  0  0
    0.0000    0.0000    0.0000 H   0  0  0  0  0  0  0  0  0  0  0  0
    0.0000    0.0000    0.0000 H   0  0  0  0  0  0  0  0  0  0  0  0
    0.0000    0.0000    0.0000 H   0  0  0  0  0  0  0  0  0  0  0  0
    0.0000    0.0000    0.0000 H   0  0  0  0  0  0  0  0  0  0  0  0
    0.0000    0.0000    0.0000 H   0  0  0  0  0  0  0  0  0  0  0  0
    0.0000    0.0000    0.0000 H   0  0  0  0  0  0  0  0  0  0  0  0
    0.0000    0.0000    0.0000 H   0  0  0  0  0  0  0  0  0  0  0  0
    0.0000    0.0000    0.0000 H   0  0  0  0  0  0  0  0  0  0  0  0
    0.0000    0.0000    0.0000 H   0  0  0  0  0  0  0  0  0  0  0  0
    0.0000    0.0000    0.0000 H   0  0  0  0  0  0  0  0  0  0  0  0
    0.0000    0.0000    0.0000 H   0  0  0  0  0  0  0  0  0  0  0  0
    0.0000    0.0000    0.0000 H   0  0  0  0  0  0  0  0  0  0  0  0
    0.0000    0.0000    0.0000 H   0  0  0  0  0  0  0  0  0  0  0  0
    0.0000    0.0000    0.0000 H   0  0  0  0  0  0  0  0  0  0  0  0
    0.0000    0.0000    0.0000 H   0  0  0  0  0  0  0  0  0  0  0  0
    0.0000    0.0000    0.0000 H   0  0  0  0  0  0  0  0  0  0  0  0
    0.0000    0.0000    0.0000 H   0  0  0  0  0  0  0  0  0  0  0  0
    0.0000    0.0000    0.0000 H   0  0  0  0  0  0  0  0  0  0  0  0
  1  2  2  0
  2  3  1  0
  3  4  2  0
  4  5  1  0
  5  6  2  0
  1  6  1  0
  1  7  1  0
  7  8  2  0
  8  9  1  0
  9 10  2  0
  2 10  1  0
  8 11  1  0
 11 12  1  0
  9 13  1  0
 13 14  1  0
  3 15  1  0
 15 16  1  0
 16 17  2  0
 17 18  1  0
 18 19  2  0
 19 20  1  0
 20 21  2  0
 16 21  1  0
 19 22  1  0
 22 23  1  0
 23 24  1  0
 23 25  2  0
 24 26  1  0
 26 27  1  0
 26 28  2  0
 27 29  1  0
 29 30  2  0
 30 31  1  0
 31 32  2  0
 32 33  1  0
 33 34  2  0
 29 34  1  0
 32 35  1  0
 36 37  1  0
 37 24  1  0
 24 36  1  0
  4 38  1  0
  5 39  1  0
  7 40  1  0
 10 41  1  0
 12 42  1  0
 12 43  1  0
 12 44  1  0
 14 45  1  0
 14 46  1  0
 14 47  1  0
 17 48  1  0
 18 49  1  0
 20 50  1  0
 21 51  1  0
 22 52  1  0
 27 53  1  0
 30 54  1  0
 31 55  1  0
 33 56  1  0
 34 57  1  0
 36 58  1  0
 36 59  1  0
 37 60  1  0
 37 61  1  0
M  END
>  <ALOGPS_LOGP>  (1) 
4.01

>  <ALOGPS_LOGS>  (1) 
-5.40

>  <ALOGPS_SOLUBILITY>  (1) 
1.99e-03 g/l

>  <DATABASE_ID>  (1) 
DB08875

>  <DATABASE_NAME>  (1) 
drugbank

>  <DRUGBANK_ID>  (1) 
DB08875

>  <DRUG_GROUPS>  (1) 
approved

>  <EXACT_MASS>  (1) 
501.169999048

>  <FORMULA>  (1) 
C28H24FN3O5

>  <GENERIC_NAME>  (1) 
Cabozantinib

>  <INCHI_IDENTIFIER>  (1) 
InChI=1S/C28H24FN3O5/c1-35-24-15-21-22(16-25(24)36-2)30-14-11-23(21)37-20-9-7-19(8-10-20)32-27(34)28(12-13-28)26(33)31-18-5-3-17(29)4-6-18/h3-11,14-16H,12-13H2,1-2H3,(H,31,33)(H,32,34)

>  <INCHI_KEY>  (1) 
ONIQOQHATWINJY-UHFFFAOYSA-N

>  <JCHEM_ACCEPTOR_COUNT>  (1) 
5

>  <JCHEM_ATOM_COUNT>  (1) 
61

>  <JCHEM_AVERAGE_POLARIZABILITY>  (1) 
51.49370830255501

>  <JCHEM_BIOAVAILABILITY>  (1) 
1

>  <JCHEM_DONOR_COUNT>  (1) 
2

>  <JCHEM_FORMAL_CHARGE>  (1) 
0

>  <JCHEM_GHOSE_FILTER>  (1) 
0

>  <JCHEM_IUPAC>  (1) 
N'1-{4-[(6,7-dimethoxyquinolin-4-yl)oxy]phenyl}-N1-(4-fluorophenyl)cyclopropane-1,1-dicarboxamide

>  <JCHEM_LOGP>  (1) 
4.658062448

>  <JCHEM_MDDR_LIKE_RULE>  (1) 
1

>  <JCHEM_NUMBER_OF_RINGS>  (1) 
5

>  <JCHEM_PHYSIOLOGICAL_CHARGE>  (1) 
0

>  <JCHEM_PKA>  (1) 
14.47114923183193

>  <JCHEM_PKA_STRONGEST_ACIDIC>  (1) 
13.46188656926935

>  <JCHEM_PKA_STRONGEST_BASIC>  (1) 
5.895706033147246

>  <JCHEM_POLAR_SURFACE_AREA>  (1) 
98.78

>  <JCHEM_REFRACTIVITY>  (1) 
136.1206

>  <JCHEM_ROTATABLE_BOND_COUNT>  (1) 
8

>  <JCHEM_RULE_OF_FIVE>  (1) 
0

>  <JCHEM_TRADITIONAL_IUPAC>  (1) 
cabozantinib

>  <JCHEM_VEBER_RULE>  (1) 
0

>  <MOLECULAR_WEIGHT>  (1) 
501.514

>  <PRODUCTS>  (1) 
Cabometyx; Cometriq

>  <SALTS>  (1) 
Cabozantinib malate

>  <SECONDARY_ACCESSION_NUMBERS>  (1) 
DB05153

>  <SMILES>  (1) 
COC1=CC2=C(C=C1OC)C(OC1=CC=C(NC(=O)C3(CC3)C(=O)NC3=CC=C(F)C=C3)C=C1)=CC=N2

$$$$
