
     RDKit          2D

 43 45  0  0  0  0  0  0  0  0999 V2000
    0.0000    0.8250    0.0000 C   0  0  0  0  0  0  0  0  0  0  0  0
    0.7145    0.4125    0.0000 C   0  0  0  0  0  0  0  0  0  0  0  0
    0.7145   -0.4125    0.0000 C   0  0  0  0  0  0  0  0  0  0  0  0
    0.0000   -0.8250    0.0000 C   0  0  0  0  0  0  0  0  0  0  0  0
   -0.7145   -0.4125    0.0000 C   0  0  0  0  0  0  0  0  0  0  0  0
   -0.7145    0.4125    0.0000 C   0  0  0  0  0  0  0  0  0  0  0  0
    4.3974   -0.4125    0.0000 N   0  0  0  0  0  0  0  0  0  0  0  0
    4.3974    0.4125    0.0000 C   0  0  0  0  0  0  0  0  0  0  0  0
    3.5724   -0.4125    0.0000 C   0  0  0  0  0  0  0  0  0  0  0  0
    3.5724    0.4125    0.0000 C   0  0  0  0  0  0  0  0  0  0  0  0
    5.1820   -0.6674    0.0000 C   0  0  0  0  0  0  0  0  0  0  0  0
    5.1820    0.6674    0.0000 S   0  0  0  0  0  0  0  0  0  0  0  0
    5.6669    0.0000    0.0000 C   0  0  0  0  0  0  0  0  0  0  0  0
    2.8579    0.8250    0.0000 N   0  0  0  0  0  0  0  0  0  0  0  0
    2.1434    0.4125    0.0000 C   0  0  0  0  0  0  0  0  0  0  0  0
    0.7145    2.0625    0.0000 N   0  0  0  0  0  0  0  0  0  0  0  0
    1.4289    0.8250    0.0000 C   0  0  0  0  0  0  0  0  0  0  0  0
    5.4369   -1.4521    0.0000 C   0  0  0  0  0  0  0  0  0  0  0  0
    0.0000    2.4750    0.0000 N   0  0  0  0  0  0  0  0  0  0  0  0
    1.4289    1.6500    0.0000 N   0  0  0  0  0  0  0  0  0  0  0  0
    2.1434   -0.4125    0.0000 O   0  0  0  0  0  0  0  0  0  0  0  0
    6.2439   -1.6236    0.0000 O   0  0  0  0  0  0  0  0  0  0  0  0
    4.8849   -2.0652    0.0000 O   0  0  0  0  0  0  0  0  0  0  0  0
    6.3857   -0.4050    0.0000 C   0  0  0  0  0  0  0  0  0  0  0  0
    6.3857    0.4050    0.0000 C   0  0  0  0  0  0  0  0  0  0  0  0
    2.9890   -0.9959    0.0000 O   0  0  0  0  0  0  0  0  0  0  0  0
    0.0000    0.0000    0.0000 H   0  0  0  0  0  0  0  0  0  0  0  0
    0.0000    0.0000    0.0000 H   0  0  0  0  0  0  0  0  0  0  0  0
    0.0000    0.0000    0.0000 H   0  0  0  0  0  0  0  0  0  0  0  0
    0.0000    0.0000    0.0000 H   0  0  0  0  0  0  0  0  0  0  0  0
    0.0000    0.0000    0.0000 H   0  0  0  0  0  0  0  0  0  0  0  0
    0.0000    0.0000    0.0000 H   0  0  0  0  0  0  0  0  0  0  0  0
    0.0000    0.0000    0.0000 H   0  0  0  0  0  0  0  0  0  0  0  0
    0.0000    0.0000    0.0000 H   0  0  0  0  0  0  0  0  0  0  0  0
    0.0000    0.0000    0.0000 H   0  0  0  0  0  0  0  0  0  0  0  0
    0.0000    0.0000    0.0000 H   0  0  0  0  0  0  0  0  0  0  0  0
    0.0000    0.0000    0.0000 H   0  0  0  0  0  0  0  0  0  0  0  0
    0.0000    0.0000    0.0000 H   0  0  0  0  0  0  0  0  0  0  0  0
    0.0000    0.0000    0.0000 H   0  0  0  0  0  0  0  0  0  0  0  0
    0.0000    0.0000    0.0000 H   0  0  0  0  0  0  0  0  0  0  0  0
    0.0000    0.0000    0.0000 H   0  0  0  0  0  0  0  0  0  0  0  0
    0.0000    0.0000    0.0000 H   0  0  0  0  0  0  0  0  0  0  0  0
    0.0000    0.0000    0.0000 H   0  0  0  0  0  0  0  0  0  0  0  0
  1  2  2  0
 17  2  1  1
  3  2  1  0
  6  1  1  0
  4  3  2  0
  5  6  2  0
  5  4  1  0
  8  7  1  0
  9  7  1  0
 11  7  1  0
  8 12  1  0
  8 10  1  0
 10  9  1  0
 10 14  1  1
 13 11  1  0
 11 18  1  6
 13 12  1  0
 24 13  1  0
 25 13  1  0
 15 14  1  0
 17 15  1  0
 21 15  2  0
 20 16  2  3
 19 16  2  0
 17 20  1  0
 22 18  1  0
 23 18  2  0
  9 26  2  0
  1 27  1  0
  3 28  1  0
  4 29  1  0
  5 30  1  0
  6 31  1  0
  8 32  1  6
 10 33  1  0
 11 34  1  0
 14 35  1  0
 17 36  1  0
 22 37  1  0
 24 38  1  0
 24 39  1  0
 24 40  1  0
 25 41  1  0
 25 42  1  0
 25 43  1  0
M  CHG  2  16   1  19  -1
M  END
>  <ALOGPS_LOGP>  (1) 
2.32

>  <ALOGPS_LOGS>  (1) 
-2.79

>  <ALOGPS_SOLUBILITY>  (1) 
6.11e-01 g/l

>  <DATABASE_ID>  (1) 
DB08795

>  <DATABASE_NAME>  (1) 
drugbank

>  <DRUGBANK_ID>  (1) 
DB08795

>  <DRUG_GROUPS>  (1) 
approved

>  <EXACT_MASS>  (1) 
375.100124747

>  <FORMULA>  (1) 
C16H17N5O4S

>  <GENERIC_NAME>  (1) 
Azidocillin

>  <INCHI_IDENTIFIER>  (1) 
InChI=1S/C16H17N5O4S/c1-16(2)11(15(24)25)21-13(23)10(14(21)26-16)18-12(22)9(19-20-17)8-6-4-3-5-7-8/h3-7,9-11,14H,1-2H3,(H,18,22)(H,24,25)/t9-,10-,11+,14-/m1/s1

>  <INCHI_KEY>  (1) 
ODFHGIPNGIAMDK-NJBDSQKTSA-N

>  <INTERNATIONAL_BRANDS>  (1) 
Alocillin; Alocin; Azlocillin

>  <JCHEM_ACCEPTOR_COUNT>  (1) 
6

>  <JCHEM_AVERAGE_POLARIZABILITY>  (1) 
35.87020806966461

>  <JCHEM_BIOAVAILABILITY>  (1) 
1

>  <JCHEM_DONOR_COUNT>  (1) 
2

>  <JCHEM_FORMAL_CHARGE>  (1) 
0

>  <JCHEM_GHOSE_FILTER>  (1) 
1

>  <JCHEM_IUPAC>  (1) 
(2S,5R,6R)-6-[(2R)-2-azido-2-phenylacetamido]-3,3-dimethyl-7-oxo-4-thia-1-azabicyclo[3.2.0]heptane-2-carboxylic acid

>  <JCHEM_LOGP>  (1) 
1.1858639233333335

>  <JCHEM_MDDR_LIKE_RULE>  (1) 
0

>  <JCHEM_NUMBER_OF_RINGS>  (1) 
3

>  <JCHEM_PHYSIOLOGICAL_CHARGE>  (1) 
-1

>  <JCHEM_PKA>  (1) 
4.625906404321596

>  <JCHEM_PKA_STRONGEST_ACIDIC>  (1) 
3.324884822141842

>  <JCHEM_PKA_STRONGEST_BASIC>  (1) 
-6.389920719441347

>  <JCHEM_POLAR_SURFACE_AREA>  (1) 
116.13999999999999

>  <JCHEM_REFRACTIVITY>  (1) 
92.15849999999999

>  <JCHEM_ROTATABLE_BOND_COUNT>  (1) 
5

>  <JCHEM_RULE_OF_FIVE>  (1) 
1

>  <JCHEM_TRADITIONAL_IUPAC>  (1) 
azidocillin

>  <JCHEM_VEBER_RULE>  (1) 
0

>  <MOLECULAR_WEIGHT>  (1) 
375.402

>  <SMILES>  (1) 
[H][C@]12SC(C)(C)[C@@H](N1C(=O)[C@H]2NC(=O)[C@H](N=[N+]=[N-])C1=CC=CC=C1)C(O)=O

$$$$
