
     RDKit          2D

 65 67  0  0  0  0  0  0  0  0999 V2000
   -1.3972   -0.3252    0.0000 P   0  0  0  0  0  0  0  0  0  0  0  0
   -1.6744   -1.1040    0.0000 O   0  0  0  0  0  0  0  0  0  0  0  0
   -1.1274    0.4547    0.0000 O   0  0  0  0  0  0  0  0  0  0  0  0
   -0.6185   -0.6023    0.0000 O   0  0  0  0  0  0  0  0  0  0  0  0
    0.0074   -0.0645    0.0000 C   0  0  0  0  0  0  0  0  0  0  0  0
    1.4470    0.1005    0.0000 O   0  0  0  0  0  0  0  0  0  0  0  0
    0.7725   -0.3796    0.0000 C   0  0  0  0  0  0  0  0  0  0  0  0
    1.0187   -1.1641    0.0000 C   0  0  0  0  0  0  0  0  0  0  0  0
    1.8461   -1.1742    0.0000 C   0  0  0  0  0  0  0  0  0  0  0  0
    2.1063   -0.3934    0.0000 C   0  0  0  0  0  0  0  0  0  0  0  0
    3.5408   -0.3827    0.0000 C   0  0  0  0  0  0  0  0  0  0  0  0
    4.2446    0.8598    0.0000 C   0  0  0  0  0  0  0  0  0  0  0  0
    3.5291    1.2684    0.0000 C   0  0  0  0  0  0  0  0  0  0  0  0
    2.8174    0.8503    0.0000 C   0  0  0  0  0  0  0  0  0  0  0  0
    2.8253    0.0257    0.0000 N   0  0  0  0  0  0  0  0  0  0  0  0
    4.9563    1.2779    0.0000 O   0  0  0  0  0  0  0  0  0  0  0  0
    3.5446   -1.2114    0.0000 O   0  0  0  0  0  0  0  0  0  0  0  0
    1.8364   -1.9961    0.0000 F   0  0  0  0  0  0  0  0  0  0  0  0
    2.6670   -1.1326    0.0000 C   0  0  0  0  0  0  0  0  0  0  0  0
   -2.0986    0.9191    0.0000 C   0  0  0  0  0  0  0  0  0  0  0  0
   -2.8088    1.3392    0.0000 C   0  0  0  0  0  0  0  0  0  0  0  0
   -1.3799    1.3242    0.0000 C   0  0  0  0  0  0  0  0  0  0  0  0
   -2.8001    2.1642    0.0000 O   0  0  0  0  0  0  0  0  0  0  0  0
   -3.5275    0.9343    0.0000 O   0  0  0  0  0  0  0  0  0  0  0  0
   -4.2376    1.3543    0.0000 C   0  0  0  0  0  0  0  0  0  0  0  0
   -4.2289    2.1792    0.0000 C   0  0  0  0  0  0  0  0  0  0  0  0
   -4.9563    0.9493    0.0000 C   0  0  0  0  0  0  0  0  0  0  0  0
   -2.4859   -1.2530    0.0000 C   0  0  0  0  0  0  0  0  0  0  0  0
   -3.0180   -0.6229    0.0000 C   0  0  0  0  0  0  0  0  0  0  0  0
   -3.8288   -0.7715    0.0000 C   0  0  0  0  0  0  0  0  0  0  0  0
   -4.1061   -1.5494    0.0000 C   0  0  0  0  0  0  0  0  0  0  0  0
   -3.5665   -2.1792    0.0000 C   0  0  0  0  0  0  0  0  0  0  0  0
   -2.7577   -2.0272    0.0000 C   0  0  0  0  0  0  0  0  0  0  0  0
   -2.1076    0.0942    0.0000 N   0  0  0  0  0  0  0  0  0  0  0  0
    0.5241   -1.8309    0.0000 O   0  0  0  0  0  0  0  0  0  0  0  0
    4.2522    0.0348    0.0000 N   0  0  0  0  0  0  0  0  0  0  0  0
    0.0000    0.0000    0.0000 H   0  0  0  0  0  0  0  0  0  0  0  0
    0.0000    0.0000    0.0000 H   0  0  0  0  0  0  0  0  0  0  0  0
    0.0000    0.0000    0.0000 H   0  0  0  0  0  0  0  0  0  0  0  0
    0.0000    0.0000    0.0000 H   0  0  0  0  0  0  0  0  0  0  0  0
    0.0000    0.0000    0.0000 H   0  0  0  0  0  0  0  0  0  0  0  0
    0.0000    0.0000    0.0000 H   0  0  0  0  0  0  0  0  0  0  0  0
    0.0000    0.0000    0.0000 H   0  0  0  0  0  0  0  0  0  0  0  0
    0.0000    0.0000    0.0000 H   0  0  0  0  0  0  0  0  0  0  0  0
    0.0000    0.0000    0.0000 H   0  0  0  0  0  0  0  0  0  0  0  0
    0.0000    0.0000    0.0000 H   0  0  0  0  0  0  0  0  0  0  0  0
    0.0000    0.0000    0.0000 H   0  0  0  0  0  0  0  0  0  0  0  0
    0.0000    0.0000    0.0000 H   0  0  0  0  0  0  0  0  0  0  0  0
    0.0000    0.0000    0.0000 H   0  0  0  0  0  0  0  0  0  0  0  0
    0.0000    0.0000    0.0000 H   0  0  0  0  0  0  0  0  0  0  0  0
    0.0000    0.0000    0.0000 H   0  0  0  0  0  0  0  0  0  0  0  0
    0.0000    0.0000    0.0000 H   0  0  0  0  0  0  0  0  0  0  0  0
    0.0000    0.0000    0.0000 H   0  0  0  0  0  0  0  0  0  0  0  0
    0.0000    0.0000    0.0000 H   0  0  0  0  0  0  0  0  0  0  0  0
    0.0000    0.0000    0.0000 H   0  0  0  0  0  0  0  0  0  0  0  0
    0.0000    0.0000    0.0000 H   0  0  0  0  0  0  0  0  0  0  0  0
    0.0000    0.0000    0.0000 H   0  0  0  0  0  0  0  0  0  0  0  0
    0.0000    0.0000    0.0000 H   0  0  0  0  0  0  0  0  0  0  0  0
    0.0000    0.0000    0.0000 H   0  0  0  0  0  0  0  0  0  0  0  0
    0.0000    0.0000    0.0000 H   0  0  0  0  0  0  0  0  0  0  0  0
    0.0000    0.0000    0.0000 H   0  0  0  0  0  0  0  0  0  0  0  0
    0.0000    0.0000    0.0000 H   0  0  0  0  0  0  0  0  0  0  0  0
    0.0000    0.0000    0.0000 H   0  0  0  0  0  0  0  0  0  0  0  0
    0.0000    0.0000    0.0000 H   0  0  0  0  0  0  0  0  0  0  0  0
    0.0000    0.0000    0.0000 H   0  0  0  0  0  0  0  0  0  0  0  0
 12 16  2  0
 11 17  2  0
 10 15  1  6
  1  4  1  6
  9 18  1  6
  9 19  1  0
  1  2  1  0
 20 21  1  1
  1  3  2  0
 20 22  1  0
  4  5  1  0
 21 23  2  0
  6  7  1  0
 21 24  1  0
  7  8  1  0
 24 25  1  0
  8  9  1  0
 25 26  1  0
  9 10  1  0
 25 27  1  0
  6 10  1  0
  2 28  1  0
  7  5  1  1
 28 29  2  0
 29 30  1  0
 30 31  2  0
 31 32  1  0
 12 13  1  0
 32 33  2  0
 33 28  1  0
 13 14  2  0
 14 15  1  0
 11 15  1  0
  8 35  1  6
  1 34  1  0
 34 20  1  0
 11 36  1  0
 36 12  1  0
  5 37  1  0
  5 38  1  0
  7 39  1  0
  8 40  1  0
 10 41  1  0
 13 42  1  0
 14 43  1  0
 19 44  1  0
 19 45  1  0
 19 46  1  0
 20 47  1  0
 22 48  1  0
 22 49  1  0
 22 50  1  0
 25 51  1  0
 26 52  1  0
 26 53  1  0
 26 54  1  0
 27 55  1  0
 27 56  1  0
 27 57  1  0
 29 58  1  0
 30 59  1  0
 31 60  1  0
 32 61  1  0
 33 62  1  0
 34 63  1  0
 35 64  1  0
 36 65  1  0
M  END
>  <ALOGPS_LOGP>  (1) 
1.63

>  <ALOGPS_LOGS>  (1) 
-2.81

>  <ALOGPS_SOLUBILITY>  (1) 
8.24e-01 g/l

>  <DATABASE_ID>  (1) 
DB08934

>  <DATABASE_NAME>  (1) 
drugbank

>  <DRUGBANK_ID>  (1) 
DB08934

>  <DRUG_GROUPS>  (1) 
approved

>  <EXACT_MASS>  (1) 
529.162544687

>  <FORMULA>  (1) 
C22H29FN3O9P

>  <GENERIC_NAME>  (1) 
Sofosbuvir

>  <INCHI_IDENTIFIER>  (1) 
InChI=1S/C22H29FN3O9P/c1-13(2)33-19(29)14(3)25-36(31,35-15-8-6-5-7-9-15)32-12-16-18(28)22(4,23)20(34-16)26-11-10-17(27)24-21(26)30/h5-11,13-14,16,18,20,28H,12H2,1-4H3,(H,25,31)(H,24,27,30)/t14-,16+,18+,20+,22+,36-/m0/s1

>  <INCHI_KEY>  (1) 
TTZHDVOVKQGIBA-IQWMDFIBSA-N

>  <INTERNATIONAL_BRANDS>  (1) 
Hepcinat; Hepcvir; SoviHep

>  <JCHEM_ACCEPTOR_COUNT>  (1) 
6

>  <JCHEM_ATOM_COUNT>  (1) 
65

>  <JCHEM_AVERAGE_POLARIZABILITY>  (1) 
49.892479808895715

>  <JCHEM_BIOAVAILABILITY>  (1) 
0

>  <JCHEM_DONOR_COUNT>  (1) 
3

>  <JCHEM_FORMAL_CHARGE>  (1) 
0

>  <JCHEM_GHOSE_FILTER>  (1) 
0

>  <JCHEM_IUPAC>  (1) 
propan-2-yl (2S)-2-{[(S)-{[(2R,3R,4R,5R)-5-(2,4-dioxo-1,2,3,4-tetrahydropyrimidin-1-yl)-4-fluoro-3-hydroxy-4-methyloxolan-2-yl]methoxy}(phenoxy)phosphoryl]amino}propanoate

>  <JCHEM_LOGP>  (1) 
1.2836041453333324

>  <JCHEM_MDDR_LIKE_RULE>  (1) 
1

>  <JCHEM_NUMBER_OF_RINGS>  (1) 
3

>  <JCHEM_PHYSIOLOGICAL_CHARGE>  (1) 
0

>  <JCHEM_PKA>  (1) 
10.386302898249347

>  <JCHEM_PKA_STRONGEST_ACIDIC>  (1) 
9.701230061122487

>  <JCHEM_PKA_STRONGEST_BASIC>  (1) 
-3.8535951513649893

>  <JCHEM_POLAR_SURFACE_AREA>  (1) 
152.73000000000002

>  <JCHEM_REFRACTIVITY>  (1) 
121.59160000000003

>  <JCHEM_ROTATABLE_BOND_COUNT>  (1) 
11

>  <JCHEM_RULE_OF_FIVE>  (1) 
0

>  <JCHEM_TRADITIONAL_IUPAC>  (1) 
isopropyl (2S)-2-{[(S)-[(2R,3R,4R,5R)-5-(2,4-dioxo-3H-pyrimidin-1-yl)-4-fluoro-3-hydroxy-4-methyloxolan-2-yl]methoxy(phenoxy)phosphoryl]amino}propanoate

>  <JCHEM_VEBER_RULE>  (1) 
0

>  <MOLECULAR_WEIGHT>  (1) 
529.458

>  <PRODUCTS>  (1) 
Epclusa; Harvoni; Sovaldi; Vosevi

>  <SMILES>  (1) 
CC(C)OC(=O)[C@H](C)N[P@](=O)(OC[C@H]1O[C@@H](N2C=CC(=O)NC2=O)[C@](C)(F)[C@@H]1O)OC1=CC=CC=C1

>  <SYNONYMS>  (1) 
S)-Isopropyl 2-((S)-(((2R,3R,4R,5R)-5-(2,4-dioxo-3,4- dihydropyrimidin-1(2H)-yl)-4-fluoro-3-hydroxy-4-methyltetrahydrofuran-2-yl)methoxy)- (phenoxy)phosphorylamino)propanoate

$$$$
