
     RDKit          2D

146149  0  0  1  0  0  0  0  0999 V2000
   15.8639   -6.1391    0.0000 C   0  0  0  0  0  0  0  0  0  0  0  0
   15.1591   -6.5457    0.0000 O   0  0  0  0  0  0  0  0  0  0  0  0
   14.4450   -5.3079    0.0000 C   0  0  0  0  0  0  0  0  0  0  0  0
   15.1497   -4.9014    0.0000 C   0  0  0  0  0  0  0  0  0  0  0  0
   15.8641   -5.3141    0.0000 C   0  0  0  0  0  0  0  0  0  0  0  0
   16.5785   -4.9018    0.0000 O   0  0  0  0  0  0  0  0  0  0  0  0
   15.1500   -4.0764    0.0000 O   0  0  0  0  0  0  0  0  0  0  0  0
   13.7256   -4.8924    0.0000 O   0  0  0  0  0  0  0  0  0  0  0  0
   13.7258   -4.0647    0.0000 C   0  0  0  0  0  0  0  0  0  0  0  0
   14.4315   -3.6576    0.0000 O   0  0  0  0  0  0  0  0  0  0  0  0
   13.0127   -3.6528    0.0000 C   0  0  0  0  0  0  0  0  0  0  0  0
   13.0128   -2.8386    0.0000 C   0  0  0  0  0  0  0  0  0  0  0  0
   12.2886   -4.0704    0.0000 C   0  0  0  0  0  0  0  0  0  0  0  0
   14.4886   -7.8822    0.0000 C   0  0  0  0  0  0  0  0  0  0  0  0
   14.4886   -8.7072    0.0000 C   0  0  0  0  0  0  0  0  0  0  0  0
   13.7740   -7.4697    0.0000 C   0  0  0  0  0  0  0  0  0  0  0  0
   13.7740   -9.1197    0.0000 O   0  0  0  0  0  0  0  0  0  0  0  0
   13.0596   -7.8822    0.0000 C   0  0  0  0  0  0  0  0  0  0  0  0
   13.0596   -8.7072    0.0000 C   0  0  0  0  0  0  0  0  0  0  0  0
   15.9175   -7.8822    0.0000 C   0  0  0  0  0  0  0  0  0  0  0  0
   15.9175   -8.7072    0.0000 C   0  0  0  0  0  0  0  0  0  0  0  0
   15.2030   -7.4697    0.0000 C   0  0  0  0  0  0  0  0  0  0  0  0
   17.3465   -7.8822    0.0000 C   0  0  0  0  0  0  0  0  0  0  0  0
   17.3465   -8.7072    0.0000 C   0  0  0  0  0  0  0  0  0  0  0  0
   16.6320   -7.4697    0.0000 C   0  0  0  0  0  0  0  0  0  0  0  0
   18.0610   -9.1197    0.0000 C   0  0  0  0  0  0  0  0  0  0  0  0
   18.0610   -9.9447    0.0000 C   0  0  0  0  0  0  0  0  0  0  0  0
   17.3465  -10.3572    0.0000 C   0  0  0  0  0  0  0  0  0  0  0  0
   16.6321   -9.9447    0.0000 C   0  0  0  0  0  0  0  0  0  0  0  0
   15.9177  -10.3573    0.0000 C   0  0  0  0  0  0  0  0  0  0  0  0
   15.2032   -9.9449    0.0000 C   0  0  0  0  0  0  0  0  0  0  0  0
   14.4887  -10.3577    0.0000 C   0  0  0  0  0  0  0  0  0  0  0  0
   13.7741   -9.9453    0.0000 C   0  0  0  0  0  0  0  0  0  0  0  0
   13.0597  -10.3579    0.0000 O   0  0  0  0  0  0  0  0  0  0  0  0
   18.7755  -10.3572    0.0000 O   0  0  0  0  0  0  0  0  0  0  0  0
   14.4890  -11.1827    0.0000 C   0  0  0  0  0  0  0  0  0  0  0  0
   16.6320   -6.5827    0.0000 O   0  0  0  0  0  0  0  0  0  0  0  0
   13.5225   -6.0172    0.0000 C   0  0  0  0  0  0  0  0  0  0  0  0
   14.4448   -6.1330    0.0000 C   0  0  0  0  0  0  0  0  0  0  0  0
   13.7524   -6.8115    0.0000 C   0  0  0  0  0  0  0  0  0  0  0  0
   12.3450   -9.1197    0.0000 C   0  0  0  0  0  0  0  0  0  0  0  0
   11.6306   -8.7072    0.0000 O   0  0  0  0  0  0  0  0  0  0  0  0
   12.3450   -9.9447    0.0000 C   0  0  0  0  0  0  0  0  0  0  0  0
   18.0610   -7.4697    0.0000 C   0  0  0  0  0  0  0  0  0  0  0  0
   18.7754   -7.8822    0.0000 C   0  0  0  0  0  0  0  0  0  0  0  0
   13.7747  -11.5955    0.0000 O   0  0  0  0  0  0  0  0  0  0  0  0
   13.0606  -12.0085    0.0000 C   0  0  0  0  0  0  0  0  0  0  0  0
   13.0612  -12.8377    0.0000 C   0  0  0  0  0  0  0  0  0  0  0  0
   12.3471  -13.2509    0.0000 C   0  0  0  0  0  0  0  0  0  0  0  0
   11.6322  -12.8389    0.0000 C   0  0  0  0  0  0  0  0  0  0  0  0
   11.6316  -12.0097    0.0000 C   0  0  0  0  0  0  0  0  0  0  0  0
   12.3457  -11.5966    0.0000 O   0  0  0  0  0  0  0  0  0  0  0  0
   10.9293  -11.6049    0.0000 C   0  0  0  0  0  0  0  0  0  0  0  0
   13.7667  -13.2444    0.0000 O   0  0  0  0  0  0  0  0  0  0  0  0
   14.4663  -12.8398    0.0000 C   0  0  0  0  0  0  0  0  0  0  0  0
   12.3477  -14.0759    0.0000 O   0  0  0  0  0  0  0  0  0  0  0  0
   10.9287  -13.2460    0.0000 O   0  0  0  0  0  0  0  0  0  0  0  0
   10.2290  -12.8428    0.0000 C   0  0  0  0  0  0  0  0  0  0  0  0
    9.5273  -13.2488    0.0000 C   0  0  0  0  0  0  0  0  0  0  0  0
   10.2282  -12.0150    0.0000 O   0  0  0  0  0  0  0  0  0  0  0  0
    9.5280  -14.0778    0.0000 C   0  0  0  0  0  0  0  0  0  0  0  0
    8.8139  -14.4909    0.0000 C   0  0  0  0  0  0  0  0  0  0  0  0
    8.0990  -14.0790    0.0000 C   0  0  0  0  0  0  0  0  0  0  0  0
    8.0983  -13.2500    0.0000 C   0  0  0  0  0  0  0  0  0  0  0  0
    8.8125  -12.8369    0.0000 C   0  0  0  0  0  0  0  0  0  0  0  0
    8.8146  -15.3158    0.0000 Cl  0  0  0  0  0  0  0  0  0  0  0  0
    7.3854  -14.4919    0.0000 O   0  0  0  0  0  0  0  0  0  0  0  0
    7.3858  -12.8395    0.0000 Cl  0  0  0  0  0  0  0  0  0  0  0  0
    8.8117  -12.0160    0.0000 O   0  0  0  0  0  0  0  0  0  0  0  0
   10.2428  -14.4897    0.0000 C   0  0  0  0  0  0  0  0  0  0  0  0
   10.9570  -14.0766    0.0000 C   0  0  0  0  0  0  0  0  0  0  0  0
   18.7755   -8.7072    0.0000 C   0  0  0  0  0  0  0  0  0  0  0  0
    0.0000    0.0000    0.0000 H   0  0  0  0  0  0  0  0  0  0  0  0
    0.0000    0.0000    0.0000 H   0  0  0  0  0  0  0  0  0  0  0  0
    0.0000    0.0000    0.0000 H   0  0  0  0  0  0  0  0  0  0  0  0
    0.0000    0.0000    0.0000 H   0  0  0  0  0  0  0  0  0  0  0  0
    0.0000    0.0000    0.0000 H   0  0  0  0  0  0  0  0  0  0  0  0
    0.0000    0.0000    0.0000 H   0  0  0  0  0  0  0  0  0  0  0  0
    0.0000    0.0000    0.0000 H   0  0  0  0  0  0  0  0  0  0  0  0
    0.0000    0.0000    0.0000 H   0  0  0  0  0  0  0  0  0  0  0  0
    0.0000    0.0000    0.0000 H   0  0  0  0  0  0  0  0  0  0  0  0
    0.0000    0.0000    0.0000 H   0  0  0  0  0  0  0  0  0  0  0  0
    0.0000    0.0000    0.0000 H   0  0  0  0  0  0  0  0  0  0  0  0
    0.0000    0.0000    0.0000 H   0  0  0  0  0  0  0  0  0  0  0  0
    0.0000    0.0000    0.0000 H   0  0  0  0  0  0  0  0  0  0  0  0
    0.0000    0.0000    0.0000 H   0  0  0  0  0  0  0  0  0  0  0  0
    0.0000    0.0000    0.0000 H   0  0  0  0  0  0  0  0  0  0  0  0
    0.0000    0.0000    0.0000 H   0  0  0  0  0  0  0  0  0  0  0  0
    0.0000    0.0000    0.0000 H   0  0  0  0  0  0  0  0  0  0  0  0
    0.0000    0.0000    0.0000 H   0  0  0  0  0  0  0  0  0  0  0  0
    0.0000    0.0000    0.0000 H   0  0  0  0  0  0  0  0  0  0  0  0
    0.0000    0.0000    0.0000 H   0  0  0  0  0  0  0  0  0  0  0  0
    0.0000    0.0000    0.0000 H   0  0  0  0  0  0  0  0  0  0  0  0
    0.0000    0.0000    0.0000 H   0  0  0  0  0  0  0  0  0  0  0  0
    0.0000    0.0000    0.0000 H   0  0  0  0  0  0  0  0  0  0  0  0
    0.0000    0.0000    0.0000 H   0  0  0  0  0  0  0  0  0  0  0  0
    0.0000    0.0000    0.0000 H   0  0  0  0  0  0  0  0  0  0  0  0
    0.0000    0.0000    0.0000 H   0  0  0  0  0  0  0  0  0  0  0  0
    0.0000    0.0000    0.0000 H   0  0  0  0  0  0  0  0  0  0  0  0
    0.0000    0.0000    0.0000 H   0  0  0  0  0  0  0  0  0  0  0  0
    0.0000    0.0000    0.0000 H   0  0  0  0  0  0  0  0  0  0  0  0
    0.0000    0.0000    0.0000 H   0  0  0  0  0  0  0  0  0  0  0  0
    0.0000    0.0000    0.0000 H   0  0  0  0  0  0  0  0  0  0  0  0
    0.0000    0.0000    0.0000 H   0  0  0  0  0  0  0  0  0  0  0  0
    0.0000    0.0000    0.0000 H   0  0  0  0  0  0  0  0  0  0  0  0
    0.0000    0.0000    0.0000 H   0  0  0  0  0  0  0  0  0  0  0  0
    0.0000    0.0000    0.0000 H   0  0  0  0  0  0  0  0  0  0  0  0
    0.0000    0.0000    0.0000 H   0  0  0  0  0  0  0  0  0  0  0  0
    0.0000    0.0000    0.0000 H   0  0  0  0  0  0  0  0  0  0  0  0
    0.0000    0.0000    0.0000 H   0  0  0  0  0  0  0  0  0  0  0  0
    0.0000    0.0000    0.0000 H   0  0  0  0  0  0  0  0  0  0  0  0
    0.0000    0.0000    0.0000 H   0  0  0  0  0  0  0  0  0  0  0  0
    0.0000    0.0000    0.0000 H   0  0  0  0  0  0  0  0  0  0  0  0
    0.0000    0.0000    0.0000 H   0  0  0  0  0  0  0  0  0  0  0  0
    0.0000    0.0000    0.0000 H   0  0  0  0  0  0  0  0  0  0  0  0
    0.0000    0.0000    0.0000 H   0  0  0  0  0  0  0  0  0  0  0  0
    0.0000    0.0000    0.0000 H   0  0  0  0  0  0  0  0  0  0  0  0
    0.0000    0.0000    0.0000 H   0  0  0  0  0  0  0  0  0  0  0  0
    0.0000    0.0000    0.0000 H   0  0  0  0  0  0  0  0  0  0  0  0
    0.0000    0.0000    0.0000 H   0  0  0  0  0  0  0  0  0  0  0  0
    0.0000    0.0000    0.0000 H   0  0  0  0  0  0  0  0  0  0  0  0
    0.0000    0.0000    0.0000 H   0  0  0  0  0  0  0  0  0  0  0  0
    0.0000    0.0000    0.0000 H   0  0  0  0  0  0  0  0  0  0  0  0
    0.0000    0.0000    0.0000 H   0  0  0  0  0  0  0  0  0  0  0  0
    0.0000    0.0000    0.0000 H   0  0  0  0  0  0  0  0  0  0  0  0
    0.0000    0.0000    0.0000 H   0  0  0  0  0  0  0  0  0  0  0  0
    0.0000    0.0000    0.0000 H   0  0  0  0  0  0  0  0  0  0  0  0
    0.0000    0.0000    0.0000 H   0  0  0  0  0  0  0  0  0  0  0  0
    0.0000    0.0000    0.0000 H   0  0  0  0  0  0  0  0  0  0  0  0
    0.0000    0.0000    0.0000 H   0  0  0  0  0  0  0  0  0  0  0  0
    0.0000    0.0000    0.0000 H   0  0  0  0  0  0  0  0  0  0  0  0
    0.0000    0.0000    0.0000 H   0  0  0  0  0  0  0  0  0  0  0  0
    0.0000    0.0000    0.0000 H   0  0  0  0  0  0  0  0  0  0  0  0
    0.0000    0.0000    0.0000 H   0  0  0  0  0  0  0  0  0  0  0  0
    0.0000    0.0000    0.0000 H   0  0  0  0  0  0  0  0  0  0  0  0
    0.0000    0.0000    0.0000 H   0  0  0  0  0  0  0  0  0  0  0  0
    0.0000    0.0000    0.0000 H   0  0  0  0  0  0  0  0  0  0  0  0
    0.0000    0.0000    0.0000 H   0  0  0  0  0  0  0  0  0  0  0  0
    0.0000    0.0000    0.0000 H   0  0  0  0  0  0  0  0  0  0  0  0
    0.0000    0.0000    0.0000 H   0  0  0  0  0  0  0  0  0  0  0  0
    0.0000    0.0000    0.0000 H   0  0  0  0  0  0  0  0  0  0  0  0
    0.0000    0.0000    0.0000 H   0  0  0  0  0  0  0  0  0  0  0  0
    0.0000    0.0000    0.0000 H   0  0  0  0  0  0  0  0  0  0  0  0
    0.0000    0.0000    0.0000 H   0  0  0  0  0  0  0  0  0  0  0  0
    0.0000    0.0000    0.0000 H   0  0  0  0  0  0  0  0  0  0  0  0
    0.0000    0.0000    0.0000 H   0  0  0  0  0  0  0  0  0  0  0  0
  1  2  1  0
  2 39  1  0
 39  3  1  0
  3  4  1  0
  4  5  1  0
  1  5  1  0
  5  6  1  1
  4  7  1  6
  3  8  1  1
  8  9  1  0
  9 10  2  0
  9 11  1  0
 11 12  1  0
 11 13  1  0
 16 14  2  0
 18 16  1  0
 19 17  1  0
 19 18  1  0
 22 20  2  0
 14 22  1  0
 15 14  1  0
 24 23  1  0
 25 23  1  0
 20 25  1  0
 21 20  1  0
 27 26  1  0
 24 26  2  0
 28 27  1  0
 29 28  1  0
 30 29  2  0
 31 30  1  0
 32 31  2  0
 33 17  1  0
 33 32  1  0
 33 34  2  0
 27 35  1  6
 32 36  1  0
  1 37  1  1
 38 39  1  0
 39 40  1  0
 25 37  1  6
 41 19  1  1
 41 42  1  0
 41 43  1  0
 23 44  1  6
 44 45  1  0
 36 46  1  0
 47 46  1  1
 47 48  1  0
 48 49  1  0
 49 50  1  0
 50 51  1  0
 51 52  1  0
 47 52  1  0
 51 53  1  1
 48 54  1  6
 54 55  1  0
 49 56  1  6
 50 57  1  6
 57 58  1  0
 58 59  1  0
 58 60  2  0
 59 61  2  0
 61 62  1  0
 62 63  2  0
 63 64  1  0
 64 65  2  0
 59 65  1  0
 62 66  1  0
 63 67  1  0
 64 68  1  0
 65 69  1  0
 61 70  1  0
 70 71  1  0
 26 72  1  0
  1 73  1  0
  3 74  1  0
  4 75  1  0
  5 76  1  0
  6 77  1  0
  7 78  1  0
 11 79  1  0
 12 80  1  0
 12 81  1  0
 12 82  1  0
 13 83  1  0
 13 84  1  0
 13 85  1  0
 15 86  1  0
 15 87  1  0
 15 88  1  0
 16 89  1  0
 18 90  1  0
 18 91  1  0
 19 92  1  0
 21 93  1  0
 21 94  1  0
 21 95  1  0
 22 96  1  0
 23 97  1  0
 24 98  1  0
 25 99  1  0
 27100  1  0
 28101  1  0
 28102  1  0
 29103  1  0
 30104  1  0
 31105  1  0
 35106  1  0
 36107  1  0
 36108  1  0
 38109  1  0
 38110  1  0
 38111  1  0
 40112  1  0
 40113  1  0
 40114  1  0
 41115  1  0
 42116  1  0
 43117  1  0
 43118  1  0
 43119  1  0
 44120  1  0
 44121  1  0
 45122  1  0
 45123  1  0
 45124  1  0
 47125  1  0
 48126  1  0
 49127  1  0
 50128  1  0
 51129  1  0
 53130  1  0
 53131  1  0
 53132  1  0
 55133  1  0
 55134  1  0
 55135  1  0
 56136  1  0
 67137  1  0
 69138  1  0
 70139  1  0
 70140  1  0
 71141  1  0
 71142  1  0
 71143  1  0
 72144  1  0
 72145  1  0
 72146  1  0
M  END
>  <ALOGPS_LOGP>  (1) 
5.59

>  <ALOGPS_LOGS>  (1) 
-4.93

>  <ALOGPS_SOLUBILITY>  (1) 
1.25e-02 g/l

>  <DATABASE_ID>  (1) 
DB08874

>  <DATABASE_NAME>  (1) 
drugbank

>  <DRUGBANK_ID>  (1) 
DB08874

>  <DRUG_GROUPS>  (1) 
approved

>  <EXACT_MASS>  (1) 
1056.425220978

>  <FORMULA>  (1) 
C52H74Cl2O18

>  <GENERIC_NAME>  (1) 
Fidaxomicin

>  <INCHI_IDENTIFIER>  (1) 
InChI=1S/C52H74Cl2O18/c1-13-30-22-26(6)33(56)18-16-15-17-31(23-66-51-45(65-12)42(61)44(29(9)67-51)69-49(64)35-32(14-2)36(53)39(58)37(54)38(35)57)48(63)68-34(28(8)55)20-19-25(5)21-27(7)43(30)70-50-41(60)40(59)46(52(10,11)72-50)71-47(62)24(3)4/h15-17,19,21-22,24,28-30,33-34,40-46,50-51,55-61H,13-14,18,20,23H2,1-12H3/b16-15+,25-19+,26-22+,27-21+,31-17+/t28-,29-,30+,33+,34?,40-,41+,42+,43+,44-,45+,46+,50-,51-/m1/s1

>  <INCHI_KEY>  (1) 
ZVGNESXIJDCBKN-KFGPIHIUSA-N

>  <JCHEM_ACCEPTOR_COUNT>  (1) 
15

>  <JCHEM_AVERAGE_POLARIZABILITY>  (1) 
110.46665877056009

>  <JCHEM_BIOAVAILABILITY>  (1) 
0

>  <JCHEM_DONOR_COUNT>  (1) 
7

>  <JCHEM_FORMAL_CHARGE>  (1) 
0

>  <JCHEM_GHOSE_FILTER>  (1) 
0

>  <JCHEM_IUPAC>  (1) 
(2R,3S,4S,5S,6R)-6-{[(3E,5E,8S,9E,11S,12R,13E,15E)-12-{[(2R,3S,4R,5S)-3,4-dihydroxy-6,6-dimethyl-5-[(2-methylpropanoyl)oxy]oxan-2-yl]oxy}-11-ethyl-8-hydroxy-18-[(1R)-1-hydroxyethyl]-9,13,15-trimethyl-2-oxo-1-oxacyclooctadeca-3,5,9,13,15-pentaen-3-yl]methoxy}-4-hydroxy-5-methoxy-2-methyloxan-3-yl 3,5-dichloro-2-ethyl-4,6-dihydroxybenzoate

>  <JCHEM_LOGP>  (1) 
8.556184696666666

>  <JCHEM_MDDR_LIKE_RULE>  (1) 
1

>  <JCHEM_NUMBER_OF_RINGS>  (1) 
4

>  <JCHEM_PHYSIOLOGICAL_CHARGE>  (1) 
-1

>  <JCHEM_PKA>  (1) 
8.551055592969377

>  <JCHEM_PKA_STRONGEST_ACIDIC>  (1) 
5.868526907082163

>  <JCHEM_PKA_STRONGEST_BASIC>  (1) 
-1.377229888905922

>  <JCHEM_POLAR_SURFACE_AREA>  (1) 
266.65999999999997

>  <JCHEM_REFRACTIVITY>  (1) 
269.66060000000004

>  <JCHEM_ROTATABLE_BOND_COUNT>  (1) 
15

>  <JCHEM_RULE_OF_FIVE>  (1) 
0

>  <JCHEM_TRADITIONAL_IUPAC>  (1) 
(2R,3S,4S,5S,6R)-6-{[(3E,5E,8S,9E,11S,12R,13E,15E)-12-{[(2R,3S,4R,5S)-3,4-dihydroxy-6,6-dimethyl-5-[(2-methylpropanoyl)oxy]oxan-2-yl]oxy}-11-ethyl-8-hydroxy-18-[(1R)-1-hydroxyethyl]-9,13,15-trimethyl-2-oxo-1-oxacyclooctadeca-3,5,9,13,15-pentaen-3-yl]methoxy}-4-hydroxy-5-methoxy-2-methyloxan-3-yl 3,5-dichloro-2-ethyl-4,6-dihydroxybenzoate

>  <JCHEM_VEBER_RULE>  (1) 
0

>  <MOLECULAR_WEIGHT>  (1) 
1058.039

>  <PRODUCTS>  (1) 
Dificid; Dificlir

>  <SMILES>  (1) 
CC[C@H]1\C=C(C)\[C@@H](O)C\C=C\C=C(CO[C@@H]2O[C@H](C)[C@@H](OC(=O)C3=C(CC)C(Cl)=C(O)C(Cl)=C3O)[C@H](O)[C@@H]2OC)\C(=O)OC(C\C=C(/C)\C=C(C)\[C@@H]1O[C@@H]1OC(C)(C)[C@@H](OC(=O)C(C)C)[C@H](O)[C@@H]1O)[C@@H](C)O

>  <SYNONYMS>  (1) 
Difimicin ; Lipiarmicin; Lipiarmycin; Lipiarrmycin; Tiacumicin B

$$$$
