
     RDKit          2D

 60 64  0  0  0  0  0  0  0  0999 V2000
    1.3140    4.4609    0.0000 S   0  0  0  0  0  0  0  0  0  0  0  0
   -3.2816   -1.6947    0.0000 O   0  0  0  0  0  0  0  0  0  0  0  0
   -0.5195   -2.5921    0.0000 O   0  0  0  0  0  0  0  0  0  0  0  0
   -1.8294   -1.9247    0.0000 N   0  0  0  0  0  0  0  0  0  0  0  0
    1.0590    2.3414    0.0000 N   0  0  0  0  0  0  0  0  0  0  0  0
    0.8292    3.7935    0.0000 N   0  0  0  0  0  0  0  0  0  0  0  0
    0.5492    0.7722    0.0000 N   0  0  0  0  0  0  0  0  0  0  0  0
   -2.6141   -3.0046    0.0000 C   0  0  0  0  0  0  0  0  0  0  0  0
   -1.8294   -3.2595    0.0000 C   0  0  0  0  0  0  0  0  0  0  0  0
   -2.6141   -2.1796    0.0000 C   0  0  0  0  0  0  0  0  0  0  0  0
   -1.3445   -2.5921    0.0000 C   0  0  0  0  0  0  0  0  0  0  0  0
    1.3140    3.1260    0.0000 C   0  0  0  0  0  0  0  0  0  0  0  0
    2.0987    3.3810    0.0000 C   0  0  0  0  0  0  0  0  0  0  0  0
    2.0987    4.2060    0.0000 C   0  0  0  0  0  0  0  0  0  0  0  0
   -3.2272   -3.5566    0.0000 C   0  0  0  0  0  0  0  0  0  0  0  0
   -1.6579   -4.0665    0.0000 C   0  0  0  0  0  0  0  0  0  0  0  0
   -1.5745   -1.1400    0.0000 C   0  0  0  0  0  0  0  0  0  0  0  0
    2.8132    2.9685    0.0000 C   0  0  0  0  0  0  0  0  0  0  0  0
    2.8132    4.6185    0.0000 C   0  0  0  0  0  0  0  0  0  0  0  0
    1.6112    1.7283    0.0000 C   0  0  0  0  0  0  0  0  0  0  0  0
    0.2521    2.1699    0.0000 C   0  0  0  0  0  0  0  0  0  0  0  0
   -3.0557   -4.3636    0.0000 C   0  0  0  0  0  0  0  0  0  0  0  0
   -2.2711   -4.6185    0.0000 C   0  0  0  0  0  0  0  0  0  0  0  0
    3.5276    3.3810    0.0000 C   0  0  0  0  0  0  0  0  0  0  0  0
    1.3562    0.9437    0.0000 C   0  0  0  0  0  0  0  0  0  0  0  0
   -0.0028    1.3853    0.0000 C   0  0  0  0  0  0  0  0  0  0  0  0
    3.5276    4.2060    0.0000 C   0  0  0  0  0  0  0  0  0  0  0  0
   -0.7676   -0.9685    0.0000 C   0  0  0  0  0  0  0  0  0  0  0  0
    0.2942   -0.0124    0.0000 C   0  0  0  0  0  0  0  0  0  0  0  0
   -0.5126   -0.1839    0.0000 C   0  0  0  0  0  0  0  0  0  0  0  0
    0.0000    0.0000    0.0000 H   0  0  0  0  0  0  0  0  0  0  0  0
    0.0000    0.0000    0.0000 H   0  0  0  0  0  0  0  0  0  0  0  0
    0.0000    0.0000    0.0000 H   0  0  0  0  0  0  0  0  0  0  0  0
    0.0000    0.0000    0.0000 H   0  0  0  0  0  0  0  0  0  0  0  0
    0.0000    0.0000    0.0000 H   0  0  0  0  0  0  0  0  0  0  0  0
    0.0000    0.0000    0.0000 H   0  0  0  0  0  0  0  0  0  0  0  0
    0.0000    0.0000    0.0000 H   0  0  0  0  0  0  0  0  0  0  0  0
    0.0000    0.0000    0.0000 H   0  0  0  0  0  0  0  0  0  0  0  0
    0.0000    0.0000    0.0000 H   0  0  0  0  0  0  0  0  0  0  0  0
    0.0000    0.0000    0.0000 H   0  0  0  0  0  0  0  0  0  0  0  0
    0.0000    0.0000    0.0000 H   0  0  0  0  0  0  0  0  0  0  0  0
    0.0000    0.0000    0.0000 H   0  0  0  0  0  0  0  0  0  0  0  0
    0.0000    0.0000    0.0000 H   0  0  0  0  0  0  0  0  0  0  0  0
    0.0000    0.0000    0.0000 H   0  0  0  0  0  0  0  0  0  0  0  0
    0.0000    0.0000    0.0000 H   0  0  0  0  0  0  0  0  0  0  0  0
    0.0000    0.0000    0.0000 H   0  0  0  0  0  0  0  0  0  0  0  0
    0.0000    0.0000    0.0000 H   0  0  0  0  0  0  0  0  0  0  0  0
    0.0000    0.0000    0.0000 H   0  0  0  0  0  0  0  0  0  0  0  0
    0.0000    0.0000    0.0000 H   0  0  0  0  0  0  0  0  0  0  0  0
    0.0000    0.0000    0.0000 H   0  0  0  0  0  0  0  0  0  0  0  0
    0.0000    0.0000    0.0000 H   0  0  0  0  0  0  0  0  0  0  0  0
    0.0000    0.0000    0.0000 H   0  0  0  0  0  0  0  0  0  0  0  0
    0.0000    0.0000    0.0000 H   0  0  0  0  0  0  0  0  0  0  0  0
    0.0000    0.0000    0.0000 H   0  0  0  0  0  0  0  0  0  0  0  0
    0.0000    0.0000    0.0000 H   0  0  0  0  0  0  0  0  0  0  0  0
    0.0000    0.0000    0.0000 H   0  0  0  0  0  0  0  0  0  0  0  0
    0.0000    0.0000    0.0000 H   0  0  0  0  0  0  0  0  0  0  0  0
    0.0000    0.0000    0.0000 H   0  0  0  0  0  0  0  0  0  0  0  0
    0.0000    0.0000    0.0000 H   0  0  0  0  0  0  0  0  0  0  0  0
    0.0000    0.0000    0.0000 H   0  0  0  0  0  0  0  0  0  0  0  0
  1  6  1  0
  1 14  1  0
  2 10  2  0
  3 11  2  0
  4 10  1  0
  4 11  1  0
  4 17  1  0
  5 12  1  0
  5 20  1  0
  5 21  1  0
  6 12  2  0
  7 25  1  0
  7 26  1  0
  7 29  1  0
  8  9  1  0
  8 10  1  0
  8 15  1  0
  9 11  1  0
  9 16  1  0
 12 13  1  0
 13 14  2  0
 13 18  1  0
 14 19  1  0
 15 22  1  0
 16 23  1  0
 17 28  1  0
 18 24  2  0
 19 27  2  0
 20 25  1  0
 21 26  1  0
 22 23  1  0
 24 27  1  0
 28 30  1  0
 29 30  1  0
  8 31  1  6
  9 32  1  6
 15 33  1  0
 15 34  1  0
 16 35  1  0
 16 36  1  0
 17 37  1  0
 17 38  1  0
 18 39  1  0
 19 40  1  0
 20 41  1  0
 20 42  1  0
 21 43  1  0
 21 44  1  0
 22 45  1  0
 22 46  1  0
 23 47  1  0
 23 48  1  0
 24 49  1  0
 25 50  1  0
 25 51  1  0
 26 52  1  0
 26 53  1  0
 27 54  1  0
 28 55  1  0
 28 56  1  0
 29 57  1  0
 29 58  1  0
 30 59  1  0
 30 60  1  0
M  END
>  <ALOGPS_LOGP>  (1) 
3.94

>  <ALOGPS_LOGS>  (1) 
-4.13

>  <ALOGPS_SOLUBILITY>  (1) 
3.17e-02 g/l

>  <DATABASE_ID>  (1) 
DB08922

>  <DATABASE_NAME>  (1) 
drugbank

>  <DRUGBANK_ID>  (1) 
DB08922

>  <DRUG_GROUPS>  (1) 
approved

>  <EXACT_MASS>  (1) 
426.208947396

>  <FORMULA>  (1) 
C23H30N4O2S

>  <GENERIC_NAME>  (1) 
Perospirone

>  <INCHI_IDENTIFIER>  (1) 
InChI=1S/C23H30N4O2S/c28-22-17-7-1-2-8-18(17)23(29)27(22)12-6-5-11-25-13-15-26(16-14-25)21-19-9-3-4-10-20(19)30-24-21/h3-4,9-10,17-18H,1-2,5-8,11-16H2/t17-,18+

>  <INCHI_KEY>  (1) 
FBVFZWUMDDXLLG-HDICACEKSA-N

>  <INTERNATIONAL_BRANDS>  (1) 
Lullan

>  <JCHEM_ACCEPTOR_COUNT>  (1) 
5

>  <JCHEM_ATOM_COUNT>  (1) 
60

>  <JCHEM_AVERAGE_POLARIZABILITY>  (1) 
48.387715366871454

>  <JCHEM_BIOAVAILABILITY>  (1) 
1

>  <JCHEM_DONOR_COUNT>  (1) 
0

>  <JCHEM_FORMAL_CHARGE>  (1) 
0

>  <JCHEM_GHOSE_FILTER>  (1) 
1

>  <JCHEM_IUPAC>  (1) 
(3aR,7aS)-2-{4-[4-(1,2-benzothiazol-3-yl)piperazin-1-yl]butyl}-octahydro-1H-isoindole-1,3-dione

>  <JCHEM_LOGP>  (1) 
3.7354490443333335

>  <JCHEM_MDDR_LIKE_RULE>  (1) 
1

>  <JCHEM_NUMBER_OF_RINGS>  (1) 
5

>  <JCHEM_PHYSIOLOGICAL_CHARGE>  (1) 
1

>  <JCHEM_PKA_STRONGEST_BASIC>  (1) 
7.7294929975599675

>  <JCHEM_POLAR_SURFACE_AREA>  (1) 
56.75000000000001

>  <JCHEM_REFRACTIVITY>  (1) 
120.29339999999998

>  <JCHEM_ROTATABLE_BOND_COUNT>  (1) 
6

>  <JCHEM_RULE_OF_FIVE>  (1) 
1

>  <JCHEM_TRADITIONAL_IUPAC>  (1) 
perospirone

>  <JCHEM_VEBER_RULE>  (1) 
0

>  <MOLECULAR_WEIGHT>  (1) 
426.58

>  <SMILES>  (1) 
[H][C@@]12CCCC[C@]1([H])C(=O)N(CCCCN1CCN(CC1)C1=NSC3=CC=CC=C13)C2=O

>  <SYNONYMS>  (1) 
cis-N-(4-(4-(1,2-Benzisothiazol-3-yl)-1-piperazinyl)butyl)-1,2-cyclohexanedicarboximide; SM-9018

$$$$
