MI1
     RDKit          2D

 43 45  0  0  0  0  0  0  0  0999 V2000
   -0.0273    0.3235    0.0000 C   0  0  0  0  0  0  0  0  0  0  0  0
    0.6871   -0.0890    0.0000 C   0  0  0  0  0  0  0  0  0  0  0  0
    1.4016    1.1485    0.0000 C   0  0  0  0  0  0  0  0  0  0  0  0
    0.6871    1.5610    0.0000 C   0  0  0  0  0  0  0  0  0  0  0  0
   -0.0273    1.1485    0.0000 C   0  0  0  0  0  0  0  0  0  0  0  0
    1.4016    0.3235    0.0000 N   0  0  0  0  0  0  0  0  0  0  0  0
    2.1161   -0.9140    0.0000 O   0  0  0  0  0  0  0  0  0  0  0  0
    2.1161   -0.0890    0.0000 C   0  0  0  0  0  0  0  0  0  0  0  0
    2.8305    0.3235    0.0000 C   0  0  0  0  0  0  0  0  0  0  0  0
    3.5450   -0.0890    0.0000 C   0  0  0  0  0  0  0  0  0  0  0  0
    4.2595   -0.5015    0.0000 N   0  0  0  0  0  0  0  0  0  0  0  0
   -0.7418    1.5610    0.0000 C   0  0  0  0  0  0  0  0  0  0  0  0
   -0.7418   -0.0890    0.0000 N   0  0  0  0  0  0  0  0  0  0  0  0
   -1.4563    0.3235    0.0000 C   0  0  0  0  0  0  0  0  0  0  0  0
   -0.7418   -0.9140    0.0000 C   0  0  0  0  0  0  0  0  0  0  0  0
   -1.4563   -1.3265    0.0000 C   0  0  0  0  0  0  0  0  0  0  0  0
   -2.2409   -1.0716    0.0000 C   0  0  0  0  0  0  0  0  0  0  0  0
   -2.7258   -1.7390    0.0000 C   0  0  0  0  0  0  0  0  0  0  0  0
   -2.2409   -2.4065    0.0000 N   0  0  0  0  0  0  0  0  0  0  0  0
   -1.4563   -2.1515    0.0000 C   0  0  0  0  0  0  0  0  0  0  0  0
   -0.7418   -2.5640    0.0000 N   0  0  0  0  0  0  0  0  0  0  0  0
   -0.0273   -2.1515    0.0000 C   0  0  0  0  0  0  0  0  0  0  0  0
   -0.0273   -1.3265    0.0000 N   0  0  0  0  0  0  0  0  0  0  0  0
    0.0000    0.0000    0.0000 H   0  0  0  0  0  0  0  0  0  0  0  0
    0.0000    0.0000    0.0000 H   0  0  0  0  0  0  0  0  0  0  0  0
    0.0000    0.0000    0.0000 H   0  0  0  0  0  0  0  0  0  0  0  0
    0.0000    0.0000    0.0000 H   0  0  0  0  0  0  0  0  0  0  0  0
    0.0000    0.0000    0.0000 H   0  0  0  0  0  0  0  0  0  0  0  0
    0.0000    0.0000    0.0000 H   0  0  0  0  0  0  0  0  0  0  0  0
    0.0000    0.0000    0.0000 H   0  0  0  0  0  0  0  0  0  0  0  0
    0.0000    0.0000    0.0000 H   0  0  0  0  0  0  0  0  0  0  0  0
    0.0000    0.0000    0.0000 H   0  0  0  0  0  0  0  0  0  0  0  0
    0.0000    0.0000    0.0000 H   0  0  0  0  0  0  0  0  0  0  0  0
    0.0000    0.0000    0.0000 H   0  0  0  0  0  0  0  0  0  0  0  0
    0.0000    0.0000    0.0000 H   0  0  0  0  0  0  0  0  0  0  0  0
    0.0000    0.0000    0.0000 H   0  0  0  0  0  0  0  0  0  0  0  0
    0.0000    0.0000    0.0000 H   0  0  0  0  0  0  0  0  0  0  0  0
    0.0000    0.0000    0.0000 H   0  0  0  0  0  0  0  0  0  0  0  0
    0.0000    0.0000    0.0000 H   0  0  0  0  0  0  0  0  0  0  0  0
    0.0000    0.0000    0.0000 H   0  0  0  0  0  0  0  0  0  0  0  0
    0.0000    0.0000    0.0000 H   0  0  0  0  0  0  0  0  0  0  0  0
    0.0000    0.0000    0.0000 H   0  0  0  0  0  0  0  0  0  0  0  0
    0.0000    0.0000    0.0000 H   0  0  0  0  0  0  0  0  0  0  0  0
  1  5  1  0
  1 13  1  6
  2  1  1  0
  3  4  1  0
  4  5  1  0
  6  2  1  0
  6  3  1  0
  7  8  2  0
  8  6  1  0
  9  8  1  0
 10  9  1  0
 11 10  3  0
  5 12  1  1
 13 15  1  0
 14 13  1  0
 15 23  1  0
 15 16  2  0
 16 17  1  0
 16 20  1  0
 17 18  2  0
 18 19  1  0
 20 19  1  0
 20 21  2  0
 22 21  1  0
 23 22  2  0
  1 24  1  0
  2 25  1  0
  2 26  1  0
  3 27  1  0
  3 28  1  0
  4 29  1  0
  4 30  1  0
  5 31  1  0
  9 32  1  0
  9 33  1  0
 12 34  1  0
 12 35  1  0
 12 36  1  0
 14 37  1  0
 14 38  1  0
 14 39  1  0
 17 40  1  0
 18 41  1  0
 19 42  1  0
 22 43  1  0
M  END
>  <ALOGPS_LOGP>  (1) 
1.58

>  <ALOGPS_LOGS>  (1) 
-3.02

>  <ALOGPS_SOLUBILITY>  (1) 
2.99e-01 g/l

>  <DATABASE_ID>  (1) 
DB08895

>  <DATABASE_NAME>  (1) 
drugbank

>  <DRUGBANK_ID>  (1) 
DB08895

>  <DRUG_GROUPS>  (1) 
approved; investigational

>  <EXACT_MASS>  (1) 
312.169859292

>  <FORMULA>  (1) 
C16H20N6O

>  <GENERIC_NAME>  (1) 
Tofacitinib

>  <INCHI_IDENTIFIER>  (1) 
InChI=1S/C16H20N6O/c1-11-5-8-22(14(23)3-6-17)9-13(11)21(2)16-12-4-7-18-15(12)19-10-20-16/h4,7,10-11,13H,3,5,8-9H2,1-2H3,(H,18,19,20)/t11-,13+/m1/s1

>  <INCHI_KEY>  (1) 
UJLAWZDWDVHWOW-YPMHNXCESA-N

>  <JCHEM_ACCEPTOR_COUNT>  (1) 
5

>  <JCHEM_AVERAGE_POLARIZABILITY>  (1) 
32.651635937906455

>  <JCHEM_BIOAVAILABILITY>  (1) 
1

>  <JCHEM_DONOR_COUNT>  (1) 
1

>  <JCHEM_FORMAL_CHARGE>  (1) 
0

>  <JCHEM_GHOSE_FILTER>  (1) 
1

>  <JCHEM_IUPAC>  (1) 
3-[(3R,4R)-4-methyl-3-[methyl({7H-pyrrolo[2,3-d]pyrimidin-4-yl})amino]piperidin-1-yl]-3-oxopropanenitrile

>  <JCHEM_LOGP>  (1) 
1.2447144283333336

>  <JCHEM_MDDR_LIKE_RULE>  (1) 
0

>  <JCHEM_NUMBER_OF_RINGS>  (1) 
3

>  <JCHEM_PHYSIOLOGICAL_CHARGE>  (1) 
1

>  <JCHEM_PKA>  (1) 
13.5934584481757

>  <JCHEM_PKA_STRONGEST_ACIDIC>  (1) 
8.458618952963217

>  <JCHEM_PKA_STRONGEST_BASIC>  (1) 
7.130264565117921

>  <JCHEM_POLAR_SURFACE_AREA>  (1) 
88.91000000000001

>  <JCHEM_REFRACTIVITY>  (1) 
87.8

>  <JCHEM_ROTATABLE_BOND_COUNT>  (1) 
3

>  <JCHEM_RULE_OF_FIVE>  (1) 
1

>  <JCHEM_TRADITIONAL_IUPAC>  (1) 
tofacitinib

>  <JCHEM_VEBER_RULE>  (1) 
0

>  <MOLECULAR_WEIGHT>  (1) 
312.3696

>  <PRODUCTS>  (1) 
Xeljanz; Xeljanz XR

>  <SALTS>  (1) 
Tofacitinib citrate

>  <SECONDARY_ACCESSION_NUMBERS>  (1) 
DB08183

>  <SMILES>  (1) 
[H][C@@]1(C)CCN(C[C@]1([H])N(C)C1=NC=NC2=C1C=CN2)C(=O)CC#N

>  <SYNONYMS>  (1) 
Tasocitinib; Tofacitinibum

$$$$
