
     RDKit          2D

 42 44  0  0  0  0  0  0  0  0999 V2000
    0.7582    0.3571    0.0000 N   0  0  0  0  0  0  0  0  0  0  0  0
    0.0439   -0.0381    0.0000 C   0  0  0  0  0  0  0  0  0  0  0  0
    2.1897    1.1856    0.0000 N   0  0  0  0  0  0  0  0  0  0  0  0
   -0.6645    0.3571    0.0000 C   0  0  0  0  0  0  0  0  0  0  0  0
    0.7582    1.1856    0.0000 C   0  0  0  0  0  0  0  0  0  0  0  0
    1.4754   -0.0381    0.0000 C   0  0  0  0  0  0  0  0  0  0  0  0
    0.0439   -0.8636    0.0000 C   0  0  0  0  0  0  0  0  0  0  0  0
   -1.3847   -0.0381    0.0000 C   0  0  0  0  0  0  0  0  0  0  0  0
   -0.6645    1.1856    0.0000 C   0  0  0  0  0  0  0  0  0  0  0  0
    1.4754    1.5984    0.0000 C   0  0  0  0  0  0  0  0  0  0  0  0
    2.1897    0.3571    0.0000 C   0  0  0  0  0  0  0  0  0  0  0  0
   -2.0960    1.1856    0.0000 C   0  0  0  0  0  0  0  0  0  0  0  0
   -1.3847    1.5984    0.0000 C   0  0  0  0  0  0  0  0  0  0  0  0
   -2.0960    0.3571    0.0000 C   0  0  0  0  0  0  0  0  0  0  0  0
   -2.8103    1.5984    0.0000 Cl  0  0  0  0  0  0  0  0  0  0  0  0
    2.9099    1.5984    0.0000 C   0  0  0  0  0  0  0  0  0  0  0  0
   -0.6645   -1.2852    0.0000 C   0  0  0  0  0  0  0  0  0  0  0  0
    0.7582   -1.2852    0.0000 C   0  0  0  0  0  0  0  0  0  0  0  0
   -0.6645   -2.1107    0.0000 C   0  0  0  0  0  0  0  0  0  0  0  0
    0.7582   -2.1107    0.0000 C   0  0  0  0  0  0  0  0  0  0  0  0
    0.0439   -2.5235    0.0000 C   0  0  0  0  0  0  0  0  0  0  0  0
    0.0000    0.0000    0.0000 H   0  0  0  0  0  0  0  0  0  0  0  0
    0.0000    0.0000    0.0000 H   0  0  0  0  0  0  0  0  0  0  0  0
    0.0000    0.0000    0.0000 H   0  0  0  0  0  0  0  0  0  0  0  0
    0.0000    0.0000    0.0000 H   0  0  0  0  0  0  0  0  0  0  0  0
    0.0000    0.0000    0.0000 H   0  0  0  0  0  0  0  0  0  0  0  0
    0.0000    0.0000    0.0000 H   0  0  0  0  0  0  0  0  0  0  0  0
    0.0000    0.0000    0.0000 H   0  0  0  0  0  0  0  0  0  0  0  0
    0.0000    0.0000    0.0000 H   0  0  0  0  0  0  0  0  0  0  0  0
    0.0000    0.0000    0.0000 H   0  0  0  0  0  0  0  0  0  0  0  0
    0.0000    0.0000    0.0000 H   0  0  0  0  0  0  0  0  0  0  0  0
    0.0000    0.0000    0.0000 H   0  0  0  0  0  0  0  0  0  0  0  0
    0.0000    0.0000    0.0000 H   0  0  0  0  0  0  0  0  0  0  0  0
    0.0000    0.0000    0.0000 H   0  0  0  0  0  0  0  0  0  0  0  0
    0.0000    0.0000    0.0000 H   0  0  0  0  0  0  0  0  0  0  0  0
    0.0000    0.0000    0.0000 H   0  0  0  0  0  0  0  0  0  0  0  0
    0.0000    0.0000    0.0000 H   0  0  0  0  0  0  0  0  0  0  0  0
    0.0000    0.0000    0.0000 H   0  0  0  0  0  0  0  0  0  0  0  0
    0.0000    0.0000    0.0000 H   0  0  0  0  0  0  0  0  0  0  0  0
    0.0000    0.0000    0.0000 H   0  0  0  0  0  0  0  0  0  0  0  0
    0.0000    0.0000    0.0000 H   0  0  0  0  0  0  0  0  0  0  0  0
    0.0000    0.0000    0.0000 H   0  0  0  0  0  0  0  0  0  0  0  0
  2  1  1  0
  3 11  1  0
  4  2  1  0
  5  1  1  0
  6  1  1  0
  7  2  1  0
  8  4  2  0
  9  4  1  0
 10  5  1  0
 11  6  1  0
 12 13  1  0
 13  9  2  0
 14  8  1  0
 15 12  1  0
 16  3  1  0
 17  7  2  0
 18  7  1  0
 19 17  1  0
 20 18  2  0
 21 19  2  0
 10  3  1  0
 14 12  2  0
 20 21  1  0
  2 22  1  0
  5 23  1  0
  5 24  1  0
  6 25  1  0
  6 26  1  0
  8 27  1  0
  9 28  1  0
 10 29  1  0
 10 30  1  0
 11 31  1  0
 11 32  1  0
 13 33  1  0
 14 34  1  0
 16 35  1  0
 16 36  1  0
 16 37  1  0
 17 38  1  0
 18 39  1  0
 19 40  1  0
 20 41  1  0
 21 42  1  0
M  END
>  <ALOGPS_LOGP>  (1) 
4.16

>  <ALOGPS_LOGS>  (1) 
-3.85

>  <ALOGPS_SOLUBILITY>  (1) 
4.24e-02 g/l

>  <DATABASE_ID>  (1) 
DB08936

>  <DATABASE_NAME>  (1) 
drugbank

>  <DRUGBANK_ID>  (1) 
DB08936

>  <DRUG_GROUPS>  (1) 
approved

>  <EXACT_MASS>  (1) 
300.139326389

>  <FORMULA>  (1) 
C18H21ClN2

>  <GENERIC_NAME>  (1) 
Chlorcyclizine

>  <INCHI_IDENTIFIER>  (1) 
InChI=1S/C18H21ClN2/c1-20-11-13-21(14-12-20)18(15-5-3-2-4-6-15)16-7-9-17(19)10-8-16/h2-10,18H,11-14H2,1H3

>  <INCHI_KEY>  (1) 
WFNAKBGANONZEQ-UHFFFAOYSA-N

>  <INTERNATIONAL_BRANDS>  (1) 
Di-Paralene; Mantadil; Pruresidine; Trihistan; Zimin

>  <JCHEM_ACCEPTOR_COUNT>  (1) 
2

>  <JCHEM_AVERAGE_POLARIZABILITY>  (1) 
33.49784394398574

>  <JCHEM_BIOAVAILABILITY>  (1) 
1

>  <JCHEM_DONOR_COUNT>  (1) 
0

>  <JCHEM_FORMAL_CHARGE>  (1) 
0

>  <JCHEM_GHOSE_FILTER>  (1) 
1

>  <JCHEM_IUPAC>  (1) 
1-[(4-chlorophenyl)(phenyl)methyl]-4-methylpiperazine

>  <JCHEM_LOGP>  (1) 
4.150047025666667

>  <JCHEM_MDDR_LIKE_RULE>  (1) 
0

>  <JCHEM_NUMBER_OF_RINGS>  (1) 
3

>  <JCHEM_PHYSIOLOGICAL_CHARGE>  (1) 
1

>  <JCHEM_PKA_STRONGEST_BASIC>  (1) 
8.00343762517937

>  <JCHEM_POLAR_SURFACE_AREA>  (1) 
6.48

>  <JCHEM_REFRACTIVITY>  (1) 
89.73840000000003

>  <JCHEM_ROTATABLE_BOND_COUNT>  (1) 
3

>  <JCHEM_RULE_OF_FIVE>  (1) 
1

>  <JCHEM_TRADITIONAL_IUPAC>  (1) 
chlorcyclizine

>  <JCHEM_VEBER_RULE>  (1) 
1

>  <MOLECULAR_WEIGHT>  (1) 
300.826

>  <PRODUCTS>  (1) 
Ahist; Biclora; Bonine Kids; Dallergy; Notuss-NX; Notuss-NXD; Poly-tussin; Poly-tussin D; Stahist AD; Stahist Ad; Statuss Green

>  <SALTS>  (1) 
Chlorcyclizine Hydrochloride

>  <SMILES>  (1) 
CN1CCN(CC1)C(C1=CC=CC=C1)C1=CC=C(Cl)C=C1

>  <SYNONYMS>  (1) 
Chlorcyclizin; Chlorcyclizine; Chlorcyclizinum; Clorciclizina

$$$$
