 
     RDKit          2D

 48 51  0  0  1  0  0  0  0  0999 V2000
   14.3963   -9.9000    0.0000 C   0  0  0  0  0  0  0  0  0  0  0  0
   14.3963  -10.7250    0.0000 C   0  0  0  0  0  0  0  0  0  0  0  0
   15.8252  -10.7250    0.0000 C   0  0  0  0  0  0  0  0  0  0  0  0
   15.8252   -9.9000    0.0000 C   0  0  0  0  0  0  0  0  0  0  0  0
   15.1107   -9.4875    0.0000 C   0  0  0  0  0  0  0  0  0  0  0  0
   13.6818   -9.4875    0.0000 C   0  0  0  0  0  0  0  0  0  0  0  0
   12.9673   -9.9000    0.0000 C   0  0  0  0  0  0  0  0  0  0  0  0
   12.9673  -10.7250    0.0000 C   0  0  0  0  0  0  0  0  0  0  0  0
   13.6818  -11.1375    0.0000 C   0  0  0  0  0  0  0  0  0  0  0  0
   12.2528  -11.1375    0.0000 C   0  0  0  0  0  0  0  0  0  0  0  0
   12.2528  -11.9625    0.0000 C   0  0  0  0  0  0  0  0  0  0  0  0
   12.9673  -12.3750    0.0000 C   0  0  0  0  0  0  0  0  0  0  0  0
   13.6818  -11.9625    0.0000 C   0  0  0  0  0  0  0  0  0  0  0  0
   11.5384  -10.7250    0.0000 C   0  0  0  0  0  0  0  0  0  0  0  0
   10.8239  -11.1375    0.0000 C   0  0  0  0  0  0  0  0  0  0  0  0
   10.8239  -11.9625    0.0000 C   0  0  0  0  0  0  0  0  0  0  0  0
   11.5384  -12.3750    0.0000 C   0  0  0  0  0  0  0  0  0  0  0  0
   10.0972  -12.3822    0.0000 O   0  0  0  0  0  0  0  0  0  0  0  0
   15.1107   -8.6626    0.0000 O   0  0  0  0  0  0  0  0  0  0  0  0
   11.5384  -13.1999    0.0000 O   0  0  0  0  0  0  0  0  0  0  0  0
   12.2528  -10.3125    0.0000 C   0  0  0  0  0  0  0  0  0  0  0  0
   14.3963   -9.0750    0.0000 C   0  0  0  0  0  0  0  0  0  0  0  0
    0.0000    0.0000    0.0000 H   0  0  0  0  0  0  0  0  0  0  0  0
    0.0000    0.0000    0.0000 H   0  0  0  0  0  0  0  0  0  0  0  0
    0.0000    0.0000    0.0000 H   0  0  0  0  0  0  0  0  0  0  0  0
    0.0000    0.0000    0.0000 H   0  0  0  0  0  0  0  0  0  0  0  0
    0.0000    0.0000    0.0000 H   0  0  0  0  0  0  0  0  0  0  0  0
    0.0000    0.0000    0.0000 H   0  0  0  0  0  0  0  0  0  0  0  0
    0.0000    0.0000    0.0000 H   0  0  0  0  0  0  0  0  0  0  0  0
    0.0000    0.0000    0.0000 H   0  0  0  0  0  0  0  0  0  0  0  0
    0.0000    0.0000    0.0000 H   0  0  0  0  0  0  0  0  0  0  0  0
    0.0000    0.0000    0.0000 H   0  0  0  0  0  0  0  0  0  0  0  0
    0.0000    0.0000    0.0000 H   0  0  0  0  0  0  0  0  0  0  0  0
    0.0000    0.0000    0.0000 H   0  0  0  0  0  0  0  0  0  0  0  0
    0.0000    0.0000    0.0000 H   0  0  0  0  0  0  0  0  0  0  0  0
    0.0000    0.0000    0.0000 H   0  0  0  0  0  0  0  0  0  0  0  0
    0.0000    0.0000    0.0000 H   0  0  0  0  0  0  0  0  0  0  0  0
    0.0000    0.0000    0.0000 H   0  0  0  0  0  0  0  0  0  0  0  0
    0.0000    0.0000    0.0000 H   0  0  0  0  0  0  0  0  0  0  0  0
    0.0000    0.0000    0.0000 H   0  0  0  0  0  0  0  0  0  0  0  0
    0.0000    0.0000    0.0000 H   0  0  0  0  0  0  0  0  0  0  0  0
    0.0000    0.0000    0.0000 H   0  0  0  0  0  0  0  0  0  0  0  0
    0.0000    0.0000    0.0000 H   0  0  0  0  0  0  0  0  0  0  0  0
    0.0000    0.0000    0.0000 H   0  0  0  0  0  0  0  0  0  0  0  0
    0.0000    0.0000    0.0000 H   0  0  0  0  0  0  0  0  0  0  0  0
    0.0000    0.0000    0.0000 H   0  0  0  0  0  0  0  0  0  0  0  0
    0.0000    0.0000    0.0000 H   0  0  0  0  0  0  0  0  0  0  0  0
    0.0000    0.0000    0.0000 H   0  0  0  0  0  0  0  0  0  0  0  0
  1  2  1  0
  2  3  1  0
  3  4  1  0
  4  5  1  0
  1  5  1  0
  1  6  1  0
  6  7  1  0
  7  8  1  0
  8  9  1  0
  9  2  1  0
  8 10  1  0
 10 11  1  0
 11 12  1  0
 12 13  1  0
 13  9  1  0
 10 14  1  0
 14 15  1  0
 15 16  1  0
 16 17  1  0
 17 11  2  0
 16 18  2  0
  5 19  2  0
 17 20  1  0
 10 21  1  1
  1 22  1  1
  2 23  1  6
  3 24  1  0
  3 25  1  0
  4 26  1  0
  4 27  1  0
  6 28  1  0
  6 29  1  0
  7 30  1  0
  7 31  1  0
  8 32  1  6
  9 33  1  1
 12 34  1  0
 12 35  1  0
 13 36  1  0
 13 37  1  0
 14 38  1  0
 14 39  1  0
 15 40  1  0
 15 41  1  0
 20 42  1  0
 21 43  1  0
 21 44  1  0
 21 45  1  0
 22 46  1  0
 22 47  1  0
 22 48  1  0
M  END
>  <ALOGPS_LOGP>  (1) 
2.57

>  <ALOGPS_LOGS>  (1) 
-3.72

>  <ALOGPS_SOLUBILITY>  (1) 
5.78e-02 g/l

>  <DATABASE_ID>  (1) 
DB08905

>  <DATABASE_NAME>  (1) 
drugbank

>  <DRUGBANK_ID>  (1) 
DB08905

>  <DRUG_GROUPS>  (1) 
approved; investigational; withdrawn

>  <EXACT_MASS>  (1) 
302.188194698

>  <FORMULA>  (1) 
C19H26O3

>  <GENERIC_NAME>  (1) 
Formestane

>  <INCHI_IDENTIFIER>  (1) 
InChI=1S/C19H26O3/c1-18-10-8-15(20)17(22)14(18)4-3-11-12-5-6-16(21)19(12,2)9-7-13(11)18/h11-13,22H,3-10H2,1-2H3/t11-,12-,13-,18+,19-/m0/s1

>  <INCHI_KEY>  (1) 
OSVMTWJCGUFAOD-KZQROQTASA-N

>  <JCHEM_ACCEPTOR_COUNT>  (1) 
3

>  <JCHEM_AVERAGE_POLARIZABILITY>  (1) 
34.072960394667355

>  <JCHEM_BIOAVAILABILITY>  (1) 
1

>  <JCHEM_DONOR_COUNT>  (1) 
1

>  <JCHEM_FORMAL_CHARGE>  (1) 
0

>  <JCHEM_GHOSE_FILTER>  (1) 
1

>  <JCHEM_IUPAC>  (1) 
(1S,2R,10R,11S,15S)-6-hydroxy-2,15-dimethyltetracyclo[8.7.0.0²,⁷.0¹¹,¹⁵]heptadec-6-ene-5,14-dione

>  <JCHEM_LOGP>  (1) 
3.4102933220000002

>  <JCHEM_MDDR_LIKE_RULE>  (1) 
0

>  <JCHEM_NUMBER_OF_RINGS>  (1) 
4

>  <JCHEM_PHYSIOLOGICAL_CHARGE>  (1) 
0

>  <JCHEM_PKA>  (1) 
19.957139088182295

>  <JCHEM_PKA_STRONGEST_ACIDIC>  (1) 
9.209685009427508

>  <JCHEM_PKA_STRONGEST_BASIC>  (1) 
-3.69994377685071

>  <JCHEM_POLAR_SURFACE_AREA>  (1) 
54.370000000000005

>  <JCHEM_REFRACTIVITY>  (1) 
85.57489999999997

>  <JCHEM_ROTATABLE_BOND_COUNT>  (1) 
0

>  <JCHEM_RULE_OF_FIVE>  (1) 
1

>  <JCHEM_TRADITIONAL_IUPAC>  (1) 
formestane

>  <JCHEM_VEBER_RULE>  (1) 
0

>  <MOLECULAR_WEIGHT>  (1) 
302.4079

>  <PRODUCTS>  (1) 
Lentaron

>  <SMILES>  (1) 
[H][C@@]12CCC(=O)[C@@]1(C)CC[C@@]1([H])[C@@]2([H])CCC2=C(O)C(=O)CC[C@]12C

>  <SYNONYMS>  (1) 
4-hydroxy-4-androstene-3,17-dione; 4-hydroxy-Δ4-androstenedione; 4-hydroxyandrostenedione; 4-OH-A

$$$$
