
     RDKit          2D

 52 54  0  0  0  0  0  0  0  0999 V2000
   -3.9732    1.4508    0.0000 C   0  0  0  0  0  0  0  0  0  0  0  0
   -3.2587    1.8633    0.0000 C   0  0  0  0  0  0  0  0  0  0  0  0
   -2.5442    1.4508    0.0000 N   0  0  0  0  0  0  0  0  0  0  0  0
   -1.8298    1.8633    0.0000 S   0  0  0  0  0  0  0  0  0  0  0  0
   -4.6876    1.8633    0.0000 C   0  0  0  0  0  0  0  0  0  0  0  0
   -1.2323    1.5947    0.0000 N   0  0  0  0  0  0  0  0  0  0  0  0
   -2.3194    2.4194    0.0000 O   0  0  0  0  0  0  0  0  0  0  0  0
   -1.3411    2.5281    0.0000 O   0  0  0  0  0  0  0  0  0  0  0  0
   -1.2331    0.8551    0.0000 C   0  0  0  0  0  0  0  0  0  0  0  0
   -1.9476    0.4426    0.0000 N   0  0  0  0  0  0  0  0  0  0  0  0
   -1.9476   -0.3824    0.0000 C   0  0  0  0  0  0  0  0  0  0  0  0
   -1.2331   -0.7949    0.0000 N   0  0  0  0  0  0  0  0  0  0  0  0
   -0.5186   -0.3824    0.0000 C   0  0  0  0  0  0  0  0  0  0  0  0
   -0.5186    0.4426    0.0000 C   0  0  0  0  0  0  0  0  0  0  0  0
    0.1957   -0.7949    0.0000 O   0  0  0  0  0  0  0  0  0  0  0  0
    0.9102   -0.3824    0.0000 C   0  0  0  0  0  0  0  0  0  0  0  0
    1.6247   -0.7949    0.0000 C   0  0  0  0  0  0  0  0  0  0  0  0
    2.3391   -0.3824    0.0000 O   0  0  0  0  0  0  0  0  0  0  0  0
    3.7681   -0.3823    0.0000 N   0  0  0  0  0  0  0  0  0  0  0  0
    3.0536   -0.7949    0.0000 C   0  0  0  0  0  0  0  0  0  0  0  0
    3.0536   -1.6199    0.0000 N   0  0  0  0  0  0  0  0  0  0  0  0
    3.7681   -2.0324    0.0000 C   0  0  0  0  0  0  0  0  0  0  0  0
    4.4825   -1.6199    0.0000 C   0  0  0  0  0  0  0  0  0  0  0  0
    4.4825   -0.7949    0.0000 C   0  0  0  0  0  0  0  0  0  0  0  0
    5.2362   -1.9554    0.0000 Br  0  0  0  0  0  0  0  0  0  0  0  0
    0.9102    2.0926    0.0000 C   0  0  0  0  0  0  0  0  0  0  0  0
    0.1957    1.6801    0.0000 C   0  0  0  0  0  0  0  0  0  0  0  0
    0.1957    0.8551    0.0000 C   0  0  0  0  0  0  0  0  0  0  0  0
    0.9102    0.4425    0.0000 C   0  0  0  0  0  0  0  0  0  0  0  0
    1.6247    0.8551    0.0000 C   0  0  0  0  0  0  0  0  0  0  0  0
    1.6247    1.6801    0.0000 C   0  0  0  0  0  0  0  0  0  0  0  0
    2.3391    2.0926    0.0000 Br  0  0  0  0  0  0  0  0  0  0  0  0
    0.0000    0.0000    0.0000 H   0  0  0  0  0  0  0  0  0  0  0  0
    0.0000    0.0000    0.0000 H   0  0  0  0  0  0  0  0  0  0  0  0
    0.0000    0.0000    0.0000 H   0  0  0  0  0  0  0  0  0  0  0  0
    0.0000    0.0000    0.0000 H   0  0  0  0  0  0  0  0  0  0  0  0
    0.0000    0.0000    0.0000 H   0  0  0  0  0  0  0  0  0  0  0  0
    0.0000    0.0000    0.0000 H   0  0  0  0  0  0  0  0  0  0  0  0
    0.0000    0.0000    0.0000 H   0  0  0  0  0  0  0  0  0  0  0  0
    0.0000    0.0000    0.0000 H   0  0  0  0  0  0  0  0  0  0  0  0
    0.0000    0.0000    0.0000 H   0  0  0  0  0  0  0  0  0  0  0  0
    0.0000    0.0000    0.0000 H   0  0  0  0  0  0  0  0  0  0  0  0
    0.0000    0.0000    0.0000 H   0  0  0  0  0  0  0  0  0  0  0  0
    0.0000    0.0000    0.0000 H   0  0  0  0  0  0  0  0  0  0  0  0
    0.0000    0.0000    0.0000 H   0  0  0  0  0  0  0  0  0  0  0  0
    0.0000    0.0000    0.0000 H   0  0  0  0  0  0  0  0  0  0  0  0
    0.0000    0.0000    0.0000 H   0  0  0  0  0  0  0  0  0  0  0  0
    0.0000    0.0000    0.0000 H   0  0  0  0  0  0  0  0  0  0  0  0
    0.0000    0.0000    0.0000 H   0  0  0  0  0  0  0  0  0  0  0  0
    0.0000    0.0000    0.0000 H   0  0  0  0  0  0  0  0  0  0  0  0
    0.0000    0.0000    0.0000 H   0  0  0  0  0  0  0  0  0  0  0  0
    0.0000    0.0000    0.0000 H   0  0  0  0  0  0  0  0  0  0  0  0
  1  2  1  0
  2  3  1  0
  3  4  1  0
  1  5  1  0
  4  6  1  0
  4  7  2  0
  4  8  2  0
  9 10  2  0
  9 14  1  0
 10 11  1  0
 11 12  2  0
 12 13  1  0
 13 14  2  0
  6  9  1  0
 13 15  1  0
 15 16  1  0
 16 17  1  0
 17 18  1  0
 19 20  2  0
 19 24  1  0
 20 21  1  0
 21 22  2  0
 22 23  1  0
 23 24  2  0
 18 20  1  0
 23 25  1  0
 26 27  2  0
 26 31  1  0
 27 28  1  0
 28 29  2  0
 29 30  1  0
 30 31  2  0
 14 28  1  0
 31 32  1  0
  1 33  1  0
  1 34  1  0
  2 35  1  0
  2 36  1  0
  3 37  1  0
  5 38  1  0
  5 39  1  0
  5 40  1  0
  6 41  1  0
 11 42  1  0
 16 43  1  0
 16 44  1  0
 17 45  1  0
 17 46  1  0
 22 47  1  0
 24 48  1  0
 26 49  1  0
 27 50  1  0
 29 51  1  0
 30 52  1  0
M  END
>  <ALOGPS_LOGP>  (1) 
3.05

>  <ALOGPS_LOGS>  (1) 
-4.94

>  <ALOGPS_SOLUBILITY>  (1) 
6.68e-03 g/l

>  <DATABASE_ID>  (1) 
DB08932

>  <DATABASE_NAME>  (1) 
drugbank

>  <DRUGBANK_ID>  (1) 
DB08932

>  <DRUG_GROUPS>  (1) 
approved

>  <EXACT_MASS>  (1) 
585.963349142

>  <FORMULA>  (1) 
C19H20Br2N6O4S

>  <GENERIC_NAME>  (1) 
Macitentan

>  <INCHI_IDENTIFIER>  (1) 
InChI=1S/C19H20Br2N6O4S/c1-2-7-26-32(28,29)27-17-16(13-3-5-14(20)6-4-13)18(25-12-24-17)30-8-9-31-19-22-10-15(21)11-23-19/h3-6,10-12,26H,2,7-9H2,1H3,(H,24,25,27)

>  <INCHI_KEY>  (1) 
JGCMEBMXRHSZKX-UHFFFAOYSA-N

>  <JCHEM_ACCEPTOR_COUNT>  (1) 
9

>  <JCHEM_AVERAGE_POLARIZABILITY>  (1) 
50.55128486306707

>  <JCHEM_BIOAVAILABILITY>  (1) 
1

>  <JCHEM_DONOR_COUNT>  (1) 
2

>  <JCHEM_FORMAL_CHARGE>  (1) 
0

>  <JCHEM_GHOSE_FILTER>  (1) 
0

>  <JCHEM_IUPAC>  (1) 
{[5-(4-bromophenyl)-6-{2-[(5-bromopyrimidin-2-yl)oxy]ethoxy}pyrimidin-4-yl]sulfamoyl}(propyl)amine

>  <JCHEM_LOGP>  (1) 
3.685126328333334

>  <JCHEM_MDDR_LIKE_RULE>  (1) 
1

>  <JCHEM_NUMBER_OF_RINGS>  (1) 
3

>  <JCHEM_PHYSIOLOGICAL_CHARGE>  (1) 
0

>  <JCHEM_PKA>  (1) 
12.266879394402345

>  <JCHEM_PKA_STRONGEST_ACIDIC>  (1) 
7.763337122181313

>  <JCHEM_PKA_STRONGEST_BASIC>  (1) 
2.258853505671414

>  <JCHEM_POLAR_SURFACE_AREA>  (1) 
128.22000000000003

>  <JCHEM_REFRACTIVITY>  (1) 
126.98400000000001

>  <JCHEM_ROTATABLE_BOND_COUNT>  (1) 
9

>  <JCHEM_RULE_OF_FIVE>  (1) 
0

>  <JCHEM_TRADITIONAL_IUPAC>  (1) 
{[5-(4-bromophenyl)-6-{2-[(5-bromopyrimidin-2-yl)oxy]ethoxy}pyrimidin-4-yl]sulfamoyl}(propyl)amine

>  <JCHEM_VEBER_RULE>  (1) 
0

>  <MOLECULAR_WEIGHT>  (1) 
588.273

>  <PRODUCTS>  (1) 
Opsumit

>  <SMILES>  (1) 
CCCNS(=O)(=O)NC1=C(C(OCCOC2=NC=C(Br)C=N2)=NC=N1)C1=CC=C(Br)C=C1

$$$$
