
     RDKit          2D

 50 50  0  0  0  0  0  0  0  0999 V2000
   -1.9136   -2.2665    0.0000 C   0  0  0  0  0  0  0  0  0  0  0  0
   -1.1991   -1.8540    0.0000 C   0  0  0  0  0  0  0  0  0  0  0  0
   -1.1991   -1.0290    0.0000 C   0  0  0  0  0  0  0  0  0  0  0  0
   -1.9136   -0.6165    0.0000 C   0  0  0  0  0  0  0  0  0  0  0  0
   -2.6280   -1.0290    0.0000 C   0  0  0  0  0  0  0  0  0  0  0  0
   -2.6280   -1.8540    0.0000 C   0  0  0  0  0  0  0  0  0  0  0  0
   -2.4968   -0.0331    0.0000 C   0  0  0  0  0  0  0  0  0  0  0  0
   -1.3302   -0.0331    0.0000 C   0  0  0  0  0  0  0  0  0  0  0  0
   -0.5333   -0.2467    0.0000 N   0  0  0  0  0  0  0  0  0  0  0  0
    0.0500    0.3366    0.0000 C   0  0  0  0  0  0  0  0  0  0  0  0
    0.8468    0.1231    0.0000 O   0  0  0  0  0  0  0  0  0  0  0  0
   -0.1635    1.1335    0.0000 O   0  0  0  0  0  0  0  0  0  0  0  0
    1.2593    0.8375    0.0000 C   0  0  0  0  0  0  0  0  0  0  0  0
    2.0843    0.8375    0.0000 O   0  0  0  0  0  0  0  0  0  0  0  0
    0.8468    1.5520    0.0000 C   0  0  0  0  0  0  0  0  0  0  0  0
    2.4968    1.5520    0.0000 C   0  0  0  0  0  0  0  0  0  0  0  0
    3.3219    1.5520    0.0000 C   0  0  0  0  0  0  0  0  0  0  0  0
    2.0843    2.2665    0.0000 O   0  0  0  0  0  0  0  0  0  0  0  0
    3.7343    2.2665    0.0000 C   0  0  0  0  0  0  0  0  0  0  0  0
    3.7343    0.8375    0.0000 C   0  0  0  0  0  0  0  0  0  0  0  0
   -3.3219   -0.0331    0.0000 C   0  0  0  0  0  0  0  0  0  0  0  0
   -3.7344    0.6812    0.0000 O   0  0  0  0  0  0  0  0  0  0  0  0
   -3.7344   -0.7476    0.0000 O   0  0  0  0  0  0  0  0  0  0  0  0
    0.0000    0.0000    0.0000 H   0  0  0  0  0  0  0  0  0  0  0  0
    0.0000    0.0000    0.0000 H   0  0  0  0  0  0  0  0  0  0  0  0
    0.0000    0.0000    0.0000 H   0  0  0  0  0  0  0  0  0  0  0  0
    0.0000    0.0000    0.0000 H   0  0  0  0  0  0  0  0  0  0  0  0
    0.0000    0.0000    0.0000 H   0  0  0  0  0  0  0  0  0  0  0  0
    0.0000    0.0000    0.0000 H   0  0  0  0  0  0  0  0  0  0  0  0
    0.0000    0.0000    0.0000 H   0  0  0  0  0  0  0  0  0  0  0  0
    0.0000    0.0000    0.0000 H   0  0  0  0  0  0  0  0  0  0  0  0
    0.0000    0.0000    0.0000 H   0  0  0  0  0  0  0  0  0  0  0  0
    0.0000    0.0000    0.0000 H   0  0  0  0  0  0  0  0  0  0  0  0
    0.0000    0.0000    0.0000 H   0  0  0  0  0  0  0  0  0  0  0  0
    0.0000    0.0000    0.0000 H   0  0  0  0  0  0  0  0  0  0  0  0
    0.0000    0.0000    0.0000 H   0  0  0  0  0  0  0  0  0  0  0  0
    0.0000    0.0000    0.0000 H   0  0  0  0  0  0  0  0  0  0  0  0
    0.0000    0.0000    0.0000 H   0  0  0  0  0  0  0  0  0  0  0  0
    0.0000    0.0000    0.0000 H   0  0  0  0  0  0  0  0  0  0  0  0
    0.0000    0.0000    0.0000 H   0  0  0  0  0  0  0  0  0  0  0  0
    0.0000    0.0000    0.0000 H   0  0  0  0  0  0  0  0  0  0  0  0
    0.0000    0.0000    0.0000 H   0  0  0  0  0  0  0  0  0  0  0  0
    0.0000    0.0000    0.0000 H   0  0  0  0  0  0  0  0  0  0  0  0
    0.0000    0.0000    0.0000 H   0  0  0  0  0  0  0  0  0  0  0  0
    0.0000    0.0000    0.0000 H   0  0  0  0  0  0  0  0  0  0  0  0
    0.0000    0.0000    0.0000 H   0  0  0  0  0  0  0  0  0  0  0  0
    0.0000    0.0000    0.0000 H   0  0  0  0  0  0  0  0  0  0  0  0
    0.0000    0.0000    0.0000 H   0  0  0  0  0  0  0  0  0  0  0  0
    0.0000    0.0000    0.0000 H   0  0  0  0  0  0  0  0  0  0  0  0
    0.0000    0.0000    0.0000 H   0  0  0  0  0  0  0  0  0  0  0  0
  1  2  1  0
  2  3  1  0
  3  4  1  0
  4  5  1  0
  5  6  1  0
  6  1  1  0
  4  7  1  0
  4  8  1  0
  8  9  1  0
  9 10  1  0
 10 11  1  0
 10 12  2  0
 11 13  1  0
 13 14  1  0
 13 15  1  0
 14 16  1  0
 16 17  1  0
 16 18  2  0
 17 19  1  0
 17 20  1  0
  7 21  1  0
 21 22  1  0
 21 23  2  0
  1 24  1  0
  1 25  1  0
  2 26  1  0
  2 27  1  0
  3 28  1  0
  3 29  1  0
  5 30  1  0
  5 31  1  0
  6 32  1  0
  6 33  1  0
  7 34  1  0
  7 35  1  0
  8 36  1  0
  8 37  1  0
  9 38  1  0
 13 39  1  0
 15 40  1  0
 15 41  1  0
 15 42  1  0
 17 43  1  0
 19 44  1  0
 19 45  1  0
 19 46  1  0
 20 47  1  0
 20 48  1  0
 20 49  1  0
 22 50  1  0
M  END
>  <ALOGPS_LOGP>  (1) 
2.45

>  <ALOGPS_LOGS>  (1) 
-3.01

>  <ALOGPS_SOLUBILITY>  (1) 
3.25e-01 g/l

>  <DATABASE_ID>  (1) 
DB08872

>  <DATABASE_NAME>  (1) 
drugbank

>  <DRUGBANK_ID>  (1) 
DB08872

>  <DRUG_GROUPS>  (1) 
approved

>  <EXACT_MASS>  (1) 
329.183837593

>  <FORMULA>  (1) 
C16H27NO6

>  <GENERIC_NAME>  (1) 
Gabapentin Enacarbil

>  <INCHI_IDENTIFIER>  (1) 
InChI=1S/C16H27NO6/c1-11(2)14(20)22-12(3)23-15(21)17-10-16(9-13(18)19)7-5-4-6-8-16/h11-12H,4-10H2,1-3H3,(H,17,21)(H,18,19)

>  <INCHI_KEY>  (1) 
TZDUHAJSIBHXDL-UHFFFAOYSA-N

>  <JCHEM_ACCEPTOR_COUNT>  (1) 
4

>  <JCHEM_ATOM_COUNT>  (1) 
50

>  <JCHEM_AVERAGE_POLARIZABILITY>  (1) 
34.37975228649671

>  <JCHEM_BIOAVAILABILITY>  (1) 
1

>  <JCHEM_DONOR_COUNT>  (1) 
2

>  <JCHEM_FORMAL_CHARGE>  (1) 
0

>  <JCHEM_GHOSE_FILTER>  (1) 
1

>  <JCHEM_IUPAC>  (1) 
2-(1-{[({1-[(2-methylpropanoyl)oxy]ethoxy}carbonyl)amino]methyl}cyclohexyl)acetic acid

>  <JCHEM_LOGP>  (1) 
2.7634692416666664

>  <JCHEM_MDDR_LIKE_RULE>  (1) 
0

>  <JCHEM_NUMBER_OF_RINGS>  (1) 
1

>  <JCHEM_PHYSIOLOGICAL_CHARGE>  (1) 
-1

>  <JCHEM_PKA>  (1) 
15.000695674166991

>  <JCHEM_PKA_STRONGEST_ACIDIC>  (1) 
4.352854024691864

>  <JCHEM_PKA_STRONGEST_BASIC>  (1) 
-7.146365794149963

>  <JCHEM_POLAR_SURFACE_AREA>  (1) 
101.93

>  <JCHEM_REFRACTIVITY>  (1) 
81.69269999999999

>  <JCHEM_ROTATABLE_BOND_COUNT>  (1) 
9

>  <JCHEM_RULE_OF_FIVE>  (1) 
1

>  <JCHEM_TRADITIONAL_IUPAC>  (1) 
gabapentin enacarbil

>  <JCHEM_VEBER_RULE>  (1) 
0

>  <MOLECULAR_WEIGHT>  (1) 
329.393

>  <PRODUCTS>  (1) 
Horizant

>  <SECONDARY_ACCESSION_NUMBERS>  (1) 
DB04922

>  <SMILES>  (1) 
CC(C)C(=O)OC(C)OC(=O)NCC1(CC(O)=O)CCCCC1

>  <SYNONYMS>  (1) 
Gabapentina enacarbilo; Gabapentine enacarbil; Gabapentinum enacarbilum

$$$$
