
     RDKit          2D

 42 45  0  0  0  0  0  0  0  0999 V2000
    0.7124   -1.0207    0.0000 C   0  0  0  0  0  0  0  0  0  0  0  0
   -0.0125    0.2125    0.0000 N   0  0  0  0  0  0  0  0  0  0  0  0
    0.7082   -0.1958    0.0000 C   0  0  0  0  0  0  0  0  0  0  0  0
   -0.7166   -1.0248    0.0000 C   0  0  0  0  0  0  0  0  0  0  0  0
   -0.7206   -0.2040    0.0000 C   0  0  0  0  0  0  0  0  0  0  0  0
    0.0000   -1.4372    0.0000 C   0  0  0  0  0  0  0  0  0  0  0  0
    1.4248   -1.4289    0.0000 C   0  0  0  0  0  0  0  0  0  0  0  0
    2.1205    0.6291    0.0000 N   0  0  0  0  0  0  0  0  0  0  0  0
    2.1290   -0.1958    0.0000 C   0  0  0  0  0  0  0  0  0  0  0  0
   -1.4248   -1.4415    0.0000 C   0  0  0  0  0  0  0  0  0  0  0  0
   -0.0167    1.0332    0.0000 C   0  0  0  0  0  0  0  0  0  0  0  0
    1.4206    0.2208    0.0000 O   0  0  0  0  0  0  0  0  0  0  0  0
    2.1330   -1.0165    0.0000 C   0  0  0  0  0  0  0  0  0  0  0  0
   -2.1414   -1.0290    0.0000 N   0  0  0  0  0  0  0  0  0  0  0  0
    1.4290   -2.2581    0.0000 C   0  0  0  0  0  0  0  0  0  0  0  0
   -2.8538   -1.4415    0.0000 C   0  0  0  0  0  0  0  0  0  0  0  0
   -1.4248   -2.2705    0.0000 C   0  0  0  0  0  0  0  0  0  0  0  0
    0.6956    1.4498    0.0000 C   0  0  0  0  0  0  0  0  0  0  0  0
   -0.7332    1.4373    0.0000 C   0  0  0  0  0  0  0  0  0  0  0  0
    2.8497   -1.4207    0.0000 C   0  0  0  0  0  0  0  0  0  0  0  0
    2.1414   -2.6663    0.0000 C   0  0  0  0  0  0  0  0  0  0  0  0
   -2.8538   -2.2705    0.0000 C   0  0  0  0  0  0  0  0  0  0  0  0
    2.8538   -2.2497    0.0000 C   0  0  0  0  0  0  0  0  0  0  0  0
    0.6916    2.2748    0.0000 C   0  0  0  0  0  0  0  0  0  0  0  0
   -0.7416    2.2623    0.0000 C   0  0  0  0  0  0  0  0  0  0  0  0
   -2.1372   -2.6830    0.0000 C   0  0  0  0  0  0  0  0  0  0  0  0
   -0.0291    2.6830    0.0000 C   0  0  0  0  0  0  0  0  0  0  0  0
    0.0000    0.0000    0.0000 H   0  0  0  0  0  0  0  0  0  0  0  0
    0.0000    0.0000    0.0000 H   0  0  0  0  0  0  0  0  0  0  0  0
    0.0000    0.0000    0.0000 H   0  0  0  0  0  0  0  0  0  0  0  0
    0.0000    0.0000    0.0000 H   0  0  0  0  0  0  0  0  0  0  0  0
    0.0000    0.0000    0.0000 H   0  0  0  0  0  0  0  0  0  0  0  0
    0.0000    0.0000    0.0000 H   0  0  0  0  0  0  0  0  0  0  0  0
    0.0000    0.0000    0.0000 H   0  0  0  0  0  0  0  0  0  0  0  0
    0.0000    0.0000    0.0000 H   0  0  0  0  0  0  0  0  0  0  0  0
    0.0000    0.0000    0.0000 H   0  0  0  0  0  0  0  0  0  0  0  0
    0.0000    0.0000    0.0000 H   0  0  0  0  0  0  0  0  0  0  0  0
    0.0000    0.0000    0.0000 H   0  0  0  0  0  0  0  0  0  0  0  0
    0.0000    0.0000    0.0000 H   0  0  0  0  0  0  0  0  0  0  0  0
    0.0000    0.0000    0.0000 H   0  0  0  0  0  0  0  0  0  0  0  0
    0.0000    0.0000    0.0000 H   0  0  0  0  0  0  0  0  0  0  0  0
    0.0000    0.0000    0.0000 H   0  0  0  0  0  0  0  0  0  0  0  0
  2  3  1  0
  3  1  1  0
  4  6  1  0
  5  2  1  0
  6  1  2  0
  7  1  1  0
  8  9  3  0
  9 13  1  0
 10  4  1  0
 11  2  1  0
 12  3  2  0
 13  7  2  0
 14 10  2  0
 15  7  1  0
 16 14  1  0
 17 10  1  0
 18 11  2  0
 19 11  1  0
 20 13  1  0
 21 15  2  0
 22 16  2  0
 23 20  2  0
 24 18  1  0
 25 19  2  0
 26 17  2  0
 27 25  1  0
  4  5  2  0
 23 21  1  0
 26 22  1  0
 27 24  2  0
  5 28  1  0
  6 29  1  0
 15 30  1  0
 16 31  1  0
 17 32  1  0
 18 33  1  0
 19 34  1  0
 20 35  1  0
 21 36  1  0
 22 37  1  0
 23 38  1  0
 24 39  1  0
 25 40  1  0
 26 41  1  0
 27 42  1  0
M  END
>  <ALOGPS_LOGP>  (1) 
3.54

>  <ALOGPS_LOGS>  (1) 
-4.80

>  <ALOGPS_SOLUBILITY>  (1) 
5.60e-03 g/l

>  <DATABASE_ID>  (1) 
DB08883

>  <DATABASE_NAME>  (1) 
drugbank

>  <DRUGBANK_ID>  (1) 
DB08883

>  <DRUG_GROUPS>  (1) 
approved

>  <EXACT_MASS>  (1) 
349.121512115

>  <FORMULA>  (1) 
C23H15N3O

>  <GENERIC_NAME>  (1) 
Perampanel

>  <INCHI_IDENTIFIER>  (1) 
InChI=1S/C23H15N3O/c24-15-17-8-4-5-11-20(17)21-14-18(22-12-6-7-13-25-22)16-26(23(21)27)19-9-2-1-3-10-19/h1-14,16H

>  <INCHI_KEY>  (1) 
PRMWGUBFXWROHD-UHFFFAOYSA-N

>  <JCHEM_ACCEPTOR_COUNT>  (1) 
3

>  <JCHEM_ATOM_COUNT>  (1) 
42

>  <JCHEM_AVERAGE_POLARIZABILITY>  (1) 
38.02821567028627

>  <JCHEM_BIOAVAILABILITY>  (1) 
1

>  <JCHEM_DONOR_COUNT>  (1) 
0

>  <JCHEM_FORMAL_CHARGE>  (1) 
0

>  <JCHEM_GHOSE_FILTER>  (1) 
1

>  <JCHEM_IUPAC>  (1) 
2-{6'-oxo-1'-phenyl-1',6'-dihydro-[2,3'-bipyridine]-5'-yl}benzonitrile

>  <JCHEM_LOGP>  (1) 
4.106756875666667

>  <JCHEM_MDDR_LIKE_RULE>  (1) 
0

>  <JCHEM_NUMBER_OF_RINGS>  (1) 
4

>  <JCHEM_PHYSIOLOGICAL_CHARGE>  (1) 
0

>  <JCHEM_PKA_STRONGEST_BASIC>  (1) 
4.009284228450634

>  <JCHEM_POLAR_SURFACE_AREA>  (1) 
56.99

>  <JCHEM_REFRACTIVITY>  (1) 
104.74140000000004

>  <JCHEM_ROTATABLE_BOND_COUNT>  (1) 
3

>  <JCHEM_RULE_OF_FIVE>  (1) 
1

>  <JCHEM_TRADITIONAL_IUPAC>  (1) 
2-{6'-oxo-1'-phenyl-[2,3'-bipyridine]-5'-yl}benzonitrile

>  <JCHEM_VEBER_RULE>  (1) 
0

>  <MOLECULAR_WEIGHT>  (1) 
349.393

>  <PRODUCTS>  (1) 
Fycompa

>  <SALTS>  (1) 
Perampanel hydrate

>  <SMILES>  (1) 
O=C1N(C=C(C=C1C1=CC=CC=C1C#N)C1=NC=CC=C1)C1=CC=CC=C1

>  <SYNONYMS>  (1) 
3-(2-Cyanophenyl)-5-(2-pyridyl)-1-phenyl-1,2-dihydropyridin-2-one; perampanel; p√©rampanel; Perampanelum

$$$$
