
     RDKit          2D

 12  8  0  0  0  0  0  0  0  0999 V2000
   -1.1785    1.6500    0.0000 Al  0  0  0  0  0  0  0  0  0  0  0  0
   -1.1785   -1.6500    0.0000 Mg  0  0  0  0  0  0  0  0  0  0  0  0
   -1.1785    0.8250    0.0000 O   0  0  0  0  0  0  0  0  0  0  0  0
   -1.1785   -0.8250    0.0000 O   0  0  0  0  0  0  0  0  0  0  0  0
   -2.0035    0.0000    0.0000 O   0  0  0  0  0  0  0  0  0  0  0  0
   -0.3535    0.0000    0.0000 O   0  0  0  0  0  0  0  0  0  0  0  0
   -1.1785    0.0000    0.0000 S   0  0  0  0  0  0  0  0  0  0  0  0
    2.0035    0.0000    0.0000 O   0  0  0  0  0  0  0  0  0  0  0  0
    0.0000    0.0000    0.0000 H   0  0  0  0  0  0  0  0  0  0  0  0
    0.0000    0.0000    0.0000 H   0  0  0  0  0  0  0  0  0  0  0  0
    0.0000    0.0000    0.0000 H   0  0  0  0  0  0  0  0  0  0  0  0
    0.0000    0.0000    0.0000 H   0  0  0  0  0  0  0  0  0  0  0  0
  7  3  1  0
  7  4  1  0
  7  5  2  0
  7  6  2  0
  1  9  1  0
  1 10  1  0
  1 11  1  0
  8 12  1  0
M  CHG  5   1   3   2   2   3  -1   4  -1   8  -1
M  END
>  <DATABASE_ID>  (1) 
DB08938

>  <DATABASE_NAME>  (1) 
drugbank

>  <DRUGBANK_ID>  (1) 
DB08938

>  <DRUG_GROUPS>  (1) 
approved; withdrawn

>  <EXACT_MASS>  (1) 
163.9199523

>  <FORMULA>  (1) 
AlHMgO5S

>  <GENERIC_NAME>  (1) 
Magaldrate

>  <INCHI_IDENTIFIER>  (1) 
InChI=1S/Al.Mg.H2O4S.H2O/c;;1-5(2,3)4;/h;;(H2,1,2,3,4);1H2/q+3;+2;;/p-3

>  <INCHI_KEY>  (1) 
JIFPTBLGXRKRAO-UHFFFAOYSA-K

>  <INTERNATIONAL_BRANDS>  (1) 
Almadrat T; Almagel T; Antashin; Bemolan; Cremag; Glysan; Lowsium; Magacid; Malugastrin; Riopan; Sanaflat

>  <JCHEM_ACCEPTOR_COUNT>  (1) 
4

>  <JCHEM_ATOM_COUNT>  (1) 
9

>  <JCHEM_AVERAGE_POLARIZABILITY>  (1) 
5.805278247285028

>  <JCHEM_BIOAVAILABILITY>  (1) 
1

>  <JCHEM_DONOR_COUNT>  (1) 
0

>  <JCHEM_FORMAL_CHARGE>  (1) 
2

>  <JCHEM_GHOSE_FILTER>  (1) 
0

>  <JCHEM_IUPAC>  (1) 
aluminium(3+) ion magnesium(2+) ion hydroxide sulfate

>  <JCHEM_LOGP>  (1) 
-0.8415520233333333

>  <JCHEM_MDDR_LIKE_RULE>  (1) 
0

>  <JCHEM_NUMBER_OF_RINGS>  (1) 
0

>  <JCHEM_PHYSIOLOGICAL_CHARGE>  (1) 
-2

>  <JCHEM_PKA>  (1) 
1.8964254257138706

>  <JCHEM_PKA_STRONGEST_ACIDIC>  (1) 
-3.034349054191991

>  <JCHEM_POLAR_SURFACE_AREA>  (1) 
80.25999999999999

>  <JCHEM_REFRACTIVITY>  (1) 
11.5274

>  <JCHEM_ROTATABLE_BOND_COUNT>  (1) 
0

>  <JCHEM_RULE_OF_FIVE>  (1) 
1

>  <JCHEM_TRADITIONAL_IUPAC>  (1) 
aluminium(3+) ion magnesium(2+) ion hydroxide sulfate

>  <JCHEM_VEBER_RULE>  (1) 
0

>  <MOLECULAR_WEIGHT>  (1) 
164.35

>  <PRODUCTS>  (1) 
Riopan Chewable Tablets 480mg; Riopan Plus Sus; Riopan Plus Suspension; Riopan Plus Tablets; Riopan Sus 480mg/5ml; Riopan Suspension 480mg/5ml; Riopan Tab 480mg; Zantanol Tab.

>  <SMILES>  (1) 
[OH-].[Mg++].[Al+3].[O-]S([O-])(=O)=O

>  <SYNONYMS>  (1) 
Aluminium magnesium hydroxide sulfate hydrate; Aluminum magnesium hydroxide sulfate hydrate; Aluminum magnesium hydroxide sulphate hydrate; Hydrate magnesium aluminate activated sulfate; Magaldrato; Magaldratum; Magnesium aluminate hydrate

$$$$
