
     RDKit          2D

 46 48  0  0  0  0  0  0  0  0999 V2000
    3.0791    0.4125    0.0000 N   0  0  0  0  0  0  0  0  0  0  0  0
    3.7935    1.6500    0.0000 N   0  0  0  0  0  0  0  0  0  0  0  0
    4.5080    2.8876    0.0000 N   0  0  0  0  0  0  0  0  0  0  0  0
    5.2224    1.6500    0.0000 N   0  0  0  0  0  0  0  0  0  0  0  0
    2.3645   -4.9501    0.0000 N   0  0  0  0  0  0  0  0  0  0  0  0
    8.0804    4.9501    0.0000 N   0  0  0  0  0  0  0  0  0  0  0  0
    3.0791   -0.4125    0.0000 C   0  0  0  0  0  0  0  0  0  0  0  0
    2.3645   -0.8250    0.0000 C   0  0  0  0  0  0  0  0  0  0  0  0
    3.7935   -0.8250    0.0000 C   0  0  0  0  0  0  0  0  0  0  0  0
    3.0791   -2.0625    0.0000 C   0  0  0  0  0  0  0  0  0  0  0  0
    2.3645   -1.6500    0.0000 C   0  0  0  0  0  0  0  0  0  0  0  0
    3.7935   -1.6500    0.0000 C   0  0  0  0  0  0  0  0  0  0  0  0
    1.6500   -0.4125    0.0000 C   0  0  0  0  0  0  0  0  0  0  0  0
    4.5080   -0.4125    0.0000 C   0  0  0  0  0  0  0  0  0  0  0  0
    3.7935    0.8250    0.0000 C   0  0  0  0  0  0  0  0  0  0  0  0
    3.0791   -2.8876    0.0000 C   0  0  0  0  0  0  0  0  0  0  0  0
    4.5080    0.4125    0.0000 C   0  0  0  0  0  0  0  0  0  0  0  0
    4.5080    2.0625    0.0000 C   0  0  0  0  0  0  0  0  0  0  0  0
    5.2224    3.3001    0.0000 C   0  0  0  0  0  0  0  0  0  0  0  0
    5.2224    0.8250    0.0000 C   0  0  0  0  0  0  0  0  0  0  0  0
    5.9370    2.8876    0.0000 C   0  0  0  0  0  0  0  0  0  0  0  0
    5.2224    4.1251    0.0000 C   0  0  0  0  0  0  0  0  0  0  0  0
    2.3645   -3.3001    0.0000 C   0  0  0  0  0  0  0  0  0  0  0  0
    6.6515    3.3001    0.0000 C   0  0  0  0  0  0  0  0  0  0  0  0
    5.9370    4.5376    0.0000 C   0  0  0  0  0  0  0  0  0  0  0  0
    6.6515    4.1251    0.0000 C   0  0  0  0  0  0  0  0  0  0  0  0
    2.3645   -4.1251    0.0000 C   0  0  0  0  0  0  0  0  0  0  0  0
    7.3659    4.5376    0.0000 C   0  0  0  0  0  0  0  0  0  0  0  0
    0.0000    0.0000    0.0000 H   0  0  0  0  0  0  0  0  0  0  0  0
    0.0000    0.0000    0.0000 H   0  0  0  0  0  0  0  0  0  0  0  0
    0.0000    0.0000    0.0000 H   0  0  0  0  0  0  0  0  0  0  0  0
    0.0000    0.0000    0.0000 H   0  0  0  0  0  0  0  0  0  0  0  0
    0.0000    0.0000    0.0000 H   0  0  0  0  0  0  0  0  0  0  0  0
    0.0000    0.0000    0.0000 H   0  0  0  0  0  0  0  0  0  0  0  0
    0.0000    0.0000    0.0000 H   0  0  0  0  0  0  0  0  0  0  0  0
    0.0000    0.0000    0.0000 H   0  0  0  0  0  0  0  0  0  0  0  0
    0.0000    0.0000    0.0000 H   0  0  0  0  0  0  0  0  0  0  0  0
    0.0000    0.0000    0.0000 H   0  0  0  0  0  0  0  0  0  0  0  0
    0.0000    0.0000    0.0000 H   0  0  0  0  0  0  0  0  0  0  0  0
    0.0000    0.0000    0.0000 H   0  0  0  0  0  0  0  0  0  0  0  0
    0.0000    0.0000    0.0000 H   0  0  0  0  0  0  0  0  0  0  0  0
    0.0000    0.0000    0.0000 H   0  0  0  0  0  0  0  0  0  0  0  0
    0.0000    0.0000    0.0000 H   0  0  0  0  0  0  0  0  0  0  0  0
    0.0000    0.0000    0.0000 H   0  0  0  0  0  0  0  0  0  0  0  0
    0.0000    0.0000    0.0000 H   0  0  0  0  0  0  0  0  0  0  0  0
    0.0000    0.0000    0.0000 H   0  0  0  0  0  0  0  0  0  0  0  0
  1  7  1  0
  1 15  1  0
  2 15  2  0
  2 18  1  0
  3 18  1  0
  3 19  1  0
  4 18  2  0
  4 20  1  0
  5 27  3  0
  6 28  3  0
  7  8  2  0
  7  9  1  0
  8 11  1  0
  8 13  1  0
  9 12  2  0
  9 14  1  0
 10 11  2  0
 10 12  1  0
 10 16  1  0
 15 17  1  0
 16 23  2  0
 17 20  2  0
 19 21  2  0
 19 22  1  0
 21 24  1  0
 22 25  2  0
 23 27  1  0
 24 26  2  0
 25 26  1  0
 26 28  1  0
  1 29  1  0
  3 30  1  0
 11 31  1  0
 12 32  1  0
 13 33  1  0
 13 34  1  0
 13 35  1  0
 14 36  1  0
 14 37  1  0
 14 38  1  0
 16 39  1  0
 17 40  1  0
 20 41  1  0
 21 42  1  0
 22 43  1  0
 23 44  1  0
 24 45  1  0
 25 46  1  0
M  END
>  <ALOGPS_LOGP>  (1) 
3.80

>  <ALOGPS_LOGS>  (1) 
-4.50

>  <ALOGPS_SOLUBILITY>  (1) 
1.16e-02 g/l

>  <DATABASE_ID>  (1) 
DB08864

>  <DATABASE_NAME>  (1) 
drugbank

>  <DRUGBANK_ID>  (1) 
DB08864

>  <DRUG_GROUPS>  (1) 
approved

>  <EXACT_MASS>  (1) 
366.159294606

>  <FORMULA>  (1) 
C22H18N6

>  <GENERIC_NAME>  (1) 
Rilpivirine

>  <INCHI_IDENTIFIER>  (1) 
InChI=1S/C22H18N6/c1-15-12-18(4-3-10-23)13-16(2)21(15)27-20-9-11-25-22(28-20)26-19-7-5-17(14-24)6-8-19/h3-9,11-13H,1-2H3,(H2,25,26,27,28)/b4-3+

>  <INCHI_KEY>  (1) 
YIBOMRUWOWDFLG-ONEGZZNKSA-N

>  <JCHEM_ACCEPTOR_COUNT>  (1) 
6

>  <JCHEM_AVERAGE_POLARIZABILITY>  (1) 
40.65300706894284

>  <JCHEM_BIOAVAILABILITY>  (1) 
1

>  <JCHEM_DONOR_COUNT>  (1) 
2

>  <JCHEM_FORMAL_CHARGE>  (1) 
0

>  <JCHEM_GHOSE_FILTER>  (1) 
1

>  <JCHEM_IUPAC>  (1) 
4-{[4-({4-[(1E)-2-cyanoeth-1-en-1-yl]-2,6-dimethylphenyl}amino)pyrimidin-2-yl]amino}benzonitrile

>  <JCHEM_LOGP>  (1) 
5.473225503

>  <JCHEM_MDDR_LIKE_RULE>  (1) 
0

>  <JCHEM_NUMBER_OF_RINGS>  (1) 
3

>  <JCHEM_PHYSIOLOGICAL_CHARGE>  (1) 
0

>  <JCHEM_PKA>  (1) 
17.334184948426305

>  <JCHEM_PKA_STRONGEST_ACIDIC>  (1) 
12.926050194201839

>  <JCHEM_PKA_STRONGEST_BASIC>  (1) 
5.157807076065362

>  <JCHEM_POLAR_SURFACE_AREA>  (1) 
97.41999999999999

>  <JCHEM_REFRACTIVITY>  (1) 
111.73939999999999

>  <JCHEM_ROTATABLE_BOND_COUNT>  (1) 
5

>  <JCHEM_RULE_OF_FIVE>  (1) 
0

>  <JCHEM_TRADITIONAL_IUPAC>  (1) 
rilpivirine

>  <JCHEM_VEBER_RULE>  (1) 
0

>  <MOLECULAR_WEIGHT>  (1) 
366.4185

>  <PRODUCTS>  (1) 
Complera; Edurant; Juluca; Odefsey

>  <SALTS>  (1) 
Rilpivirine Hydrochloride

>  <SECONDARY_ACCESSION_NUMBERS>  (1) 
DB08592; DB05083

>  <SMILES>  (1) 
CC1=CC(\C=C\C#N)=CC(C)=C1NC1=NC(NC2=CC=C(C=C2)C#N)=NC=C1

>  <SYNONYMS>  (1) 
4-{[4-({4-[(E)-2-cyanovinyl]-2,6-dimethylphenyl}amino)pyrimidin-2-yl]amino}benzonitrile

$$$$
