
     RDKit          2D

111119  0  0  0  0  0  0  0  0999 V2000
   -5.7798    5.2154    0.0000 C   0  0  0  0  0  0  0  0  0  0  0  0
   -6.2990    4.5742    0.0000 C   0  0  0  0  0  0  0  0  0  0  0  0
   -5.8497    3.8823    0.0000 O   0  0  0  0  0  0  0  0  0  0  0  0
   -5.0528    4.0959    0.0000 C   0  0  0  0  0  0  0  0  0  0  0  0
   -5.0097    4.9197    0.0000 C   0  0  0  0  0  0  0  0  0  0  0  0
   -5.9934    6.0123    0.0000 O   0  0  0  0  0  0  0  0  0  0  0  0
   -5.4100    6.5956    0.0000 C   0  0  0  0  0  0  0  0  0  0  0  0
   -7.1240    4.5742    0.0000 C   0  0  0  0  0  0  0  0  0  0  0  0
   -7.5365    5.2887    0.0000 C   0  0  0  0  0  0  0  0  0  0  0  0
   -8.3615    5.2887    0.0000 C   0  0  0  0  0  0  0  0  0  0  0  0
   -8.7740    6.0032    0.0000 N   0  0  0  0  0  0  0  0  0  0  0  0
   -7.1240    6.0032    0.0000 O   0  0  0  0  0  0  0  0  0  0  0  0
   -4.2952    5.3322    0.0000 C   0  0  0  0  0  0  0  0  0  0  0  0
   -3.5807    4.9197    0.0000 C   0  0  0  0  0  0  0  0  0  0  0  0
   -2.8662    5.3322    0.0000 C   0  0  0  0  0  0  0  0  0  0  0  0
   -3.5807    4.0947    0.0000 O   0  0  0  0  0  0  0  0  0  0  0  0
   -2.1518    4.9197    0.0000 C   0  0  0  0  0  0  0  0  0  0  0  0
   -1.4373    5.3322    0.0000 C   0  0  0  0  0  0  0  0  0  0  0  0
   -2.1518    4.0947    0.0000 O   0  0  0  0  0  0  0  0  0  0  0  0
   -1.4373    3.6822    0.0000 C   0  0  0  0  0  0  0  0  0  0  0  0
   -0.7228    4.0947    0.0000 C   0  0  0  0  0  0  0  0  0  0  0  0
   -0.7228    4.9197    0.0000 C   0  0  0  0  0  0  0  0  0  0  0  0
   -1.4373    2.8572    0.0000 C   0  0  0  0  0  0  0  0  0  0  0  0
   -0.7228    2.4446    0.0000 C   0  0  0  0  0  0  0  0  0  0  0  0
   -0.0084    2.8572    0.0000 C   0  0  0  0  0  0  0  0  0  0  0  0
   -0.0084    3.6822    0.0000 O   0  0  0  0  0  0  0  0  0  0  0  0
   -2.0207    2.2738    0.0000 O   0  0  0  0  0  0  0  0  0  0  0  0
    0.7061    2.4447    0.0000 C   0  0  0  0  0  0  0  0  0  0  0  0
    0.4926    1.6478    0.0000 C   0  0  0  0  0  0  0  0  0  0  0  0
   -0.2219    1.2353    0.0000 C   0  0  0  0  0  0  0  0  0  0  0  0
   -1.0188    1.4488    0.0000 C   0  0  0  0  0  0  0  0  0  0  0  0
   -1.8157    1.2353    0.0000 C   0  0  0  0  0  0  0  0  0  0  0  0
   -2.2282    0.5208    0.0000 C   0  0  0  0  0  0  0  0  0  0  0  0
   -0.3043    1.8613    0.0000 O   0  0  0  0  0  0  0  0  0  0  0  0
   -0.0908    2.2311    0.0000 O   0  0  0  0  0  0  0  0  0  0  0  0
   -3.3295    0.0589    0.0000 C   0  0  0  0  0  0  0  0  0  0  0  0
   -3.8486    0.7001    0.0000 O   0  0  0  0  0  0  0  0  0  0  0  0
   -4.6188    0.4044    0.0000 C   0  0  0  0  0  0  0  0  0  0  0  0
   -4.5757   -0.4194    0.0000 C   0  0  0  0  0  0  0  0  0  0  0  0
   -3.7788   -0.6329    0.0000 C   0  0  0  0  0  0  0  0  0  0  0  0
   -5.1590   -1.0028    0.0000 C   0  0  0  0  0  0  0  0  0  0  0  0
   -5.3333    0.8169    0.0000 C   0  0  0  0  0  0  0  0  0  0  0  0
   -5.3333    1.6419    0.0000 C   0  0  0  0  0  0  0  0  0  0  0  0
   -4.8911    2.0330    0.0000 C   0  0  0  0  0  0  0  0  0  0  0  0
   -4.1766    3.2706    0.0000 C   0  0  0  0  0  0  0  0  0  0  0  0
   -4.8911    2.8581    0.0000 O   0  0  0  0  0  0  0  0  0  0  0  0
   -4.1766    1.6205    0.0000 C   0  0  0  0  0  0  0  0  0  0  0  0
   -3.4621    2.0330    0.0000 C   0  0  0  0  0  0  0  0  0  0  0  0
   -3.4621    2.8581    0.0000 C   0  0  0  0  0  0  0  0  0  0  0  0
   -2.9245    3.1527    0.0000 C   0  0  0  0  0  0  0  0  0  0  0  0
   -2.7477    1.6205    0.0000 C   0  0  0  0  0  0  0  0  0  0  0  0
   -4.1766    3.6831    0.0000 C   0  0  0  0  0  0  0  0  0  0  0  0
    0.0000    0.0000    0.0000 H   0  0  0  0  0  0  0  0  0  0  0  0
    0.0000    0.0000    0.0000 H   0  0  0  0  0  0  0  0  0  0  0  0
    0.0000    0.0000    0.0000 H   0  0  0  0  0  0  0  0  0  0  0  0
    0.0000    0.0000    0.0000 H   0  0  0  0  0  0  0  0  0  0  0  0
    0.0000    0.0000    0.0000 H   0  0  0  0  0  0  0  0  0  0  0  0
    0.0000    0.0000    0.0000 H   0  0  0  0  0  0  0  0  0  0  0  0
    0.0000    0.0000    0.0000 H   0  0  0  0  0  0  0  0  0  0  0  0
    0.0000    0.0000    0.0000 H   0  0  0  0  0  0  0  0  0  0  0  0
    0.0000    0.0000    0.0000 H   0  0  0  0  0  0  0  0  0  0  0  0
    0.0000    0.0000    0.0000 H   0  0  0  0  0  0  0  0  0  0  0  0
    0.0000    0.0000    0.0000 H   0  0  0  0  0  0  0  0  0  0  0  0
    0.0000    0.0000    0.0000 H   0  0  0  0  0  0  0  0  0  0  0  0
    0.0000    0.0000    0.0000 H   0  0  0  0  0  0  0  0  0  0  0  0
    0.0000    0.0000    0.0000 H   0  0  0  0  0  0  0  0  0  0  0  0
    0.0000    0.0000    0.0000 H   0  0  0  0  0  0  0  0  0  0  0  0
    0.0000    0.0000    0.0000 H   0  0  0  0  0  0  0  0  0  0  0  0
    0.0000    0.0000    0.0000 H   0  0  0  0  0  0  0  0  0  0  0  0
    0.0000    0.0000    0.0000 H   0  0  0  0  0  0  0  0  0  0  0  0
    0.0000    0.0000    0.0000 H   0  0  0  0  0  0  0  0  0  0  0  0
    0.0000    0.0000    0.0000 H   0  0  0  0  0  0  0  0  0  0  0  0
    0.0000    0.0000    0.0000 H   0  0  0  0  0  0  0  0  0  0  0  0
    0.0000    0.0000    0.0000 H   0  0  0  0  0  0  0  0  0  0  0  0
    0.0000    0.0000    0.0000 H   0  0  0  0  0  0  0  0  0  0  0  0
    0.0000    0.0000    0.0000 H   0  0  0  0  0  0  0  0  0  0  0  0
    0.0000    0.0000    0.0000 H   0  0  0  0  0  0  0  0  0  0  0  0
    0.0000    0.0000    0.0000 H   0  0  0  0  0  0  0  0  0  0  0  0
    0.0000    0.0000    0.0000 H   0  0  0  0  0  0  0  0  0  0  0  0
    0.0000    0.0000    0.0000 H   0  0  0  0  0  0  0  0  0  0  0  0
    0.0000    0.0000    0.0000 H   0  0  0  0  0  0  0  0  0  0  0  0
    0.0000    0.0000    0.0000 H   0  0  0  0  0  0  0  0  0  0  0  0
    0.0000    0.0000    0.0000 H   0  0  0  0  0  0  0  0  0  0  0  0
    0.0000    0.0000    0.0000 H   0  0  0  0  0  0  0  0  0  0  0  0
    0.0000    0.0000    0.0000 H   0  0  0  0  0  0  0  0  0  0  0  0
    0.0000    0.0000    0.0000 H   0  0  0  0  0  0  0  0  0  0  0  0
    0.0000    0.0000    0.0000 H   0  0  0  0  0  0  0  0  0  0  0  0
    0.0000    0.0000    0.0000 H   0  0  0  0  0  0  0  0  0  0  0  0
    0.0000    0.0000    0.0000 H   0  0  0  0  0  0  0  0  0  0  0  0
    0.0000    0.0000    0.0000 H   0  0  0  0  0  0  0  0  0  0  0  0
    0.0000    0.0000    0.0000 H   0  0  0  0  0  0  0  0  0  0  0  0
    0.0000    0.0000    0.0000 H   0  0  0  0  0  0  0  0  0  0  0  0
    0.0000    0.0000    0.0000 H   0  0  0  0  0  0  0  0  0  0  0  0
    0.0000    0.0000    0.0000 H   0  0  0  0  0  0  0  0  0  0  0  0
    0.0000    0.0000    0.0000 H   0  0  0  0  0  0  0  0  0  0  0  0
    0.0000    0.0000    0.0000 H   0  0  0  0  0  0  0  0  0  0  0  0
    0.0000    0.0000    0.0000 H   0  0  0  0  0  0  0  0  0  0  0  0
    0.0000    0.0000    0.0000 H   0  0  0  0  0  0  0  0  0  0  0  0
    0.0000    0.0000    0.0000 H   0  0  0  0  0  0  0  0  0  0  0  0
    0.0000    0.0000    0.0000 H   0  0  0  0  0  0  0  0  0  0  0  0
    0.0000    0.0000    0.0000 H   0  0  0  0  0  0  0  0  0  0  0  0
    0.0000    0.0000    0.0000 H   0  0  0  0  0  0  0  0  0  0  0  0
    0.0000    0.0000    0.0000 H   0  0  0  0  0  0  0  0  0  0  0  0
    0.0000    0.0000    0.0000 H   0  0  0  0  0  0  0  0  0  0  0  0
    0.0000    0.0000    0.0000 H   0  0  0  0  0  0  0  0  0  0  0  0
    0.0000    0.0000    0.0000 H   0  0  0  0  0  0  0  0  0  0  0  0
    0.0000    0.0000    0.0000 H   0  0  0  0  0  0  0  0  0  0  0  0
    0.0000    0.0000    0.0000 H   0  0  0  0  0  0  0  0  0  0  0  0
    0.0000    0.0000    0.0000 H   0  0  0  0  0  0  0  0  0  0  0  0
    0.0000    0.0000    0.0000 H   0  0  0  0  0  0  0  0  0  0  0  0
    0.0000    0.0000    0.0000 H   0  0  0  0  0  0  0  0  0  0  0  0
  1  2  1  0
  1  5  1  0
  2  3  1  0
  3  4  1  0
  4  5  1  0
  1  6  1  1
  6  7  1  0
  2  8  1  1
  9  8  1  1
  9 10  1  0
 10 11  1  0
  9 12  1  0
  5 13  1  0
 13 14  1  0
 14 15  1  0
 14 16  2  0
 15 17  1  0
 18 17  1  0
 17 19  1  0
 18 22  1  0
 19 20  1  0
 21 22  1  0
 21 26  1  0
 21 20  1  0
 20 23  1  0
 23 24  1  0
 24 25  1  0
 25 26  1  0
 23 27  1  0
 25 28  1  0
 28 29  1  0
 29 30  1  0
 30 31  1  0
 31 32  1  1
 32 33  1  0
 29 34  1  0
 24 34  1  0
 28 35  1  0
 31 35  1  0
 31 27  1  0
 36 33  1  0
 40 36  1  0
 37 36  1  0
 37 38  1  0
 38 39  1  0
 39 40  1  0
 39 41  2  3
 38 42  1  0
 42 43  1  0
 44 43  1  0
 46 44  1  0
 44 47  1  0
 45 46  1  0
 45 49  1  0
 47 48  1  0
 48 49  1  0
 49 50  2  3
 48 51  1  6
 45 52  1  0
  4 52  1  0
  1 53  1  0
  2 54  1  0
  4 55  1  1
  5 56  1  6
  7 57  1  0
  7 58  1  0
  7 59  1  0
  8 60  1  0
  8 61  1  0
  9 62  1  0
 10 63  1  0
 10 64  1  0
 11 65  1  0
 11 66  1  0
 12 67  1  0
 13 68  1  0
 13 69  1  0
 15 70  1  0
 15 71  1  0
 17 72  1  0
 18 73  1  0
 18 74  1  0
 20 75  1  6
 21 76  1  1
 22 77  1  0
 22 78  1  0
 23 79  1  6
 24 80  1  6
 25 81  1  6
 28 82  1  1
 29 83  1  6
 30 84  1  0
 30 85  1  0
 32 86  1  0
 32 87  1  0
 33 88  1  0
 33 89  1  0
 36 90  1  6
 38 91  1  1
 40 92  1  0
 40 93  1  0
 41 94  1  0
 41 95  1  0
 42 96  1  0
 42 97  1  0
 43 98  1  0
 43 99  1  0
 44100  1  1
 45101  1  1
 47102  1  0
 47103  1  0
 48104  1  0
 50105  1  0
 50106  1  0
 51107  1  0
 51108  1  0
 51109  1  0
 52110  1  0
 52111  1  0
M  END
>  <ALOGPS_LOGP>  (1) 
1.26

>  <ALOGPS_LOGS>  (1) 
-3.96

>  <ALOGPS_SOLUBILITY>  (1) 
7.98e-02 g/l

>  <DATABASE_ID>  (1) 
DB08871

>  <DATABASE_NAME>  (1) 
drugbank

>  <DRUGBANK_ID>  (1) 
DB08871

>  <DRUG_GROUPS>  (1) 
approved; investigational

>  <EXACT_MASS>  (1) 
729.408811735

>  <FORMULA>  (1) 
C40H59NO11

>  <GENERIC_NAME>  (1) 
Eribulin

>  <INCHI_IDENTIFIER>  (1) 
InChI=1S/C40H59NO11/c1-19-11-24-5-7-28-20(2)12-26(45-28)9-10-40-17-33-36(51-40)37-38(50-33)39(52-40)35-29(49-37)8-6-25(47-35)13-22(42)14-27-31(16-30(46-24)21(19)3)48-32(34(27)44-4)15-23(43)18-41/h19,23-39,43H,2-3,5-18,41H2,1,4H3/t19-,23+,24+,25?,26+,27+,28+,29+,30-,31+,32-,33-,34-,35+,36+,37+,38-,39+,40+/m1/s1

>  <INCHI_KEY>  (1) 
UFNVPOGXISZXJD-WVMZDRIUSA-N

>  <JCHEM_ACCEPTOR_COUNT>  (1) 
12

>  <JCHEM_AVERAGE_POLARIZABILITY>  (1) 
77.52480871222942

>  <JCHEM_BIOAVAILABILITY>  (1) 
0

>  <JCHEM_DONOR_COUNT>  (1) 
2

>  <JCHEM_FORMAL_CHARGE>  (1) 
0

>  <JCHEM_GHOSE_FILTER>  (1) 
0

>  <JCHEM_IUPAC>  (1) 
(1S,3S,6S,9S,12S,14R,16R,18S,20R,21R,22S,29S,31R,32S,33R,35R,36S)-20-[(2S)-3-amino-2-hydroxypropyl]-21-methoxy-14-methyl-8,15-dimethylidene-2,19,30,34,37,39,40,41-octaoxanonacyclo[24.9.2.1³,³².1³,³³.1⁶,⁹.1¹²,¹⁶.0¹⁸,²².0²⁹,³⁶.0³¹,³⁵]hentetracontan-24-one

>  <JCHEM_LOGP>  (1) 
2.3077780763333315

>  <JCHEM_MDDR_LIKE_RULE>  (1) 
0

>  <JCHEM_NUMBER_OF_RINGS>  (1) 
9

>  <JCHEM_PHYSIOLOGICAL_CHARGE>  (1) 
1

>  <JCHEM_PKA>  (1) 
17.3241056878398

>  <JCHEM_PKA_STRONGEST_ACIDIC>  (1) 
14.814863700887567

>  <JCHEM_PKA_STRONGEST_BASIC>  (1) 
9.388201717420564

>  <JCHEM_POLAR_SURFACE_AREA>  (1) 
146.39000000000001

>  <JCHEM_REFRACTIVITY>  (1) 
185.99539999999993

>  <JCHEM_ROTATABLE_BOND_COUNT>  (1) 
4

>  <JCHEM_RULE_OF_FIVE>  (1) 
0

>  <JCHEM_TRADITIONAL_IUPAC>  (1) 
(1S,3S,6S,9S,12S,14R,16R,18S,20R,21R,22S,29S,31R,32S,33R,35R,36S)-20-[(2S)-3-amino-2-hydroxypropyl]-21-methoxy-14-methyl-8,15-dimethylidene-2,19,30,34,37,39,40,41-octaoxanonacyclo[24.9.2.1³,³².1³,³³.1⁶,⁹.1¹²,¹⁶.0¹⁸,²².0²⁹,³⁶.0³¹,³⁵]hentetracontan-24-one

>  <JCHEM_VEBER_RULE>  (1) 
0

>  <MOLECULAR_WEIGHT>  (1) 
729.8966

>  <PRODUCTS>  (1) 
Halaven

>  <SALTS>  (1) 
Eribulin mesylate

>  <SECONDARY_ACCESSION_NUMBERS>  (1) 
DB04940

>  <SMILES>  (1) 
[H][C@@]12O[C@@]3([H])CCC4CC(=O)C[C@H]5[C@H](C[C@H]6O[C@H](C[C@@H](C)C6=C)CC[C@@H]6O[C@H](CC6=C)CC[C@@]67C[C@@H](O[C@H]1[C@@H](O6)[C@@]3([H])O4)[C@@H]2O7)O[C@H](C[C@H](O)CN)[C@@H]5OC

$$$$
