12894
     RDKit          2D

 31 32  0  0  0  0  0  0  0  0999 V2000
    2.4751    0.2863    0.0000 S   0  0  0  0  0  0  0  0  0  0  0  0
    3.2758    2.3443    0.0000 O   0  0  0  0  0  0  0  0  0  0  0  0
    3.3001    0.2863    0.0000 O   0  0  0  0  0  0  0  0  0  0  0  0
    1.6500    0.2863    0.0000 O   0  0  0  0  0  0  0  0  0  0  0  0
    2.4751    1.1113    0.0000 N   0  0  0  0  0  0  0  0  0  0  0  0
    3.9433    1.1883    0.0000 N   0  0  0  0  0  0  0  0  0  0  0  0
    2.4751   -3.0138    0.0000 N   0  0  0  0  0  0  0  0  0  0  0  0
    2.4751   -0.5387    0.0000 C   0  0  0  0  0  0  0  0  0  0  0  0
    3.1895    1.5238    0.0000 C   0  0  0  0  0  0  0  0  0  0  0  0
    4.0828    2.5158    0.0000 C   0  0  0  0  0  0  0  0  0  0  0  0
    4.4953    1.8013    0.0000 C   0  0  0  0  0  0  0  0  0  0  0  0
    1.7606   -0.9512    0.0000 C   0  0  0  0  0  0  0  0  0  0  0  0
    3.1895   -0.9512    0.0000 C   0  0  0  0  0  0  0  0  0  0  0  0
    1.7606   -1.7763    0.0000 C   0  0  0  0  0  0  0  0  0  0  0  0
    3.1895   -1.7763    0.0000 C   0  0  0  0  0  0  0  0  0  0  0  0
    2.4751   -2.1888    0.0000 C   0  0  0  0  0  0  0  0  0  0  0  0
    4.4183    3.2695    0.0000 C   0  0  0  0  0  0  0  0  0  0  0  0
    5.3158    1.7151    0.0000 C   0  0  0  0  0  0  0  0  0  0  0  0
    0.0000    0.0000    0.0000 H   0  0  0  0  0  0  0  0  0  0  0  0
    0.0000    0.0000    0.0000 H   0  0  0  0  0  0  0  0  0  0  0  0
    0.0000    0.0000    0.0000 H   0  0  0  0  0  0  0  0  0  0  0  0
    0.0000    0.0000    0.0000 H   0  0  0  0  0  0  0  0  0  0  0  0
    0.0000    0.0000    0.0000 H   0  0  0  0  0  0  0  0  0  0  0  0
    0.0000    0.0000    0.0000 H   0  0  0  0  0  0  0  0  0  0  0  0
    0.0000    0.0000    0.0000 H   0  0  0  0  0  0  0  0  0  0  0  0
    0.0000    0.0000    0.0000 H   0  0  0  0  0  0  0  0  0  0  0  0
    0.0000    0.0000    0.0000 H   0  0  0  0  0  0  0  0  0  0  0  0
    0.0000    0.0000    0.0000 H   0  0  0  0  0  0  0  0  0  0  0  0
    0.0000    0.0000    0.0000 H   0  0  0  0  0  0  0  0  0  0  0  0
    0.0000    0.0000    0.0000 H   0  0  0  0  0  0  0  0  0  0  0  0
    0.0000    0.0000    0.0000 H   0  0  0  0  0  0  0  0  0  0  0  0
  1  3  2  0
  1  4  2  0
  1  5  1  0
  1  8  1  0
  2  9  1  0
  2 10  1  0
  5  9  1  0
  6  9  2  0
  6 11  1  0
  7 16  1  0
  8 12  2  0
  8 13  1  0
 10 11  2  0
 10 17  1  0
 11 18  1  0
 12 14  1  0
 13 15  2  0
 14 16  2  0
 15 16  1  0
  5 19  1  0
  7 20  1  0
  7 21  1  0
 12 22  1  0
 13 23  1  0
 14 24  1  0
 15 25  1  0
 17 26  1  0
 17 27  1  0
 17 28  1  0
 18 29  1  0
 18 30  1  0
 18 31  1  0
M  END
>  <ALOGPS_LOGP>  (1) 
1.04

>  <ALOGPS_LOGS>  (1) 
-3.00

>  <ALOGPS_SOLUBILITY>  (1) 
2.67e-01 g/l

>  <DATABASE_ID>  (1) 
DB08798

>  <DATABASE_NAME>  (1) 
drugbank

>  <DRUGBANK_ID>  (1) 
DB08798

>  <DRUG_GROUPS>  (1) 
approved

>  <EXACT_MASS>  (1) 
267.067761987

>  <FORMULA>  (1) 
C11H13N3O3S

>  <GENERIC_NAME>  (1) 
Sulfamoxole

>  <INCHI_IDENTIFIER>  (1) 
InChI=1S/C11H13N3O3S/c1-7-8(2)17-11(13-7)14-18(15,16)10-5-3-9(12)4-6-10/h3-6H,12H2,1-2H3,(H,13,14)

>  <INCHI_KEY>  (1) 
CYFLXLSBHQBMFT-UHFFFAOYSA-N

>  <INTERNATIONAL_BRANDS>  (1) 
Sulfmidil; Sulfuno

>  <JCHEM_ACCEPTOR_COUNT>  (1) 
4

>  <JCHEM_AVERAGE_POLARIZABILITY>  (1) 
27.444221092556525

>  <JCHEM_BIOAVAILABILITY>  (1) 
1

>  <JCHEM_DONOR_COUNT>  (1) 
2

>  <JCHEM_FORMAL_CHARGE>  (1) 
0

>  <JCHEM_GHOSE_FILTER>  (1) 
1

>  <JCHEM_IUPAC>  (1) 
4-amino-N-(dimethyl-1,3-oxazol-2-yl)benzene-1-sulfonamide

>  <JCHEM_LOGP>  (1) 
0.5890580276666666

>  <JCHEM_MDDR_LIKE_RULE>  (1) 
0

>  <JCHEM_NUMBER_OF_RINGS>  (1) 
2

>  <JCHEM_PHYSIOLOGICAL_CHARGE>  (1) 
-1

>  <JCHEM_PKA_STRONGEST_ACIDIC>  (1) 
6.808689436049524

>  <JCHEM_PKA_STRONGEST_BASIC>  (1) 
1.9356010208077885

>  <JCHEM_POLAR_SURFACE_AREA>  (1) 
98.22

>  <JCHEM_REFRACTIVITY>  (1) 
67.51450000000001

>  <JCHEM_ROTATABLE_BOND_COUNT>  (1) 
2

>  <JCHEM_RULE_OF_FIVE>  (1) 
1

>  <JCHEM_TRADITIONAL_IUPAC>  (1) 
sulfamoxole

>  <JCHEM_VEBER_RULE>  (1) 
0

>  <MOLECULAR_WEIGHT>  (1) 
267.304

>  <SMILES>  (1) 
CC1=C(C)N=C(NS(=O)(=O)C2=CC=C(N)C=C2)O1

>  <SYNONYMS>  (1) 
4,5-Dimethyl-2-sulfanilamidooxazole; Oxasulfa; Sulfadimethyloxazole; Sulfamoxol; Sulfamoxolum; Sulphamoxole

$$$$
