
     RDKit          2D

 52 53  0  0  0  0  0  0  0  0999 V2000
   -5.0012    3.4660    0.0000 C   0  0  0  0  0  0  0  0  0  0  0  0
   -6.4302    0.9910    0.0000 C   0  0  0  0  0  0  0  0  0  0  0  0
   -2.4453    0.9590    0.0000 C   0  0  0  0  0  0  0  0  0  0  0  0
   -2.1904    1.7436    0.0000 C   0  0  0  0  0  0  0  0  0  0  0  0
   -4.2868    5.5285    0.0000 C   0  0  0  0  0  0  0  0  0  0  0  0
   -5.0012    5.9410    0.0000 C   0  0  0  0  0  0  0  0  0  0  0  0
   -3.2703    0.9590    0.0000 C   0  0  0  0  0  0  0  0  0  0  0  0
   -5.7157    3.0535    0.0000 C   0  0  0  0  0  0  0  0  0  0  0  0
   -6.4302    4.2910    0.0000 C   0  0  0  0  0  0  0  0  0  0  0  0
   -2.8578    3.0535    0.0000 C   0  0  0  0  0  0  0  0  0  0  0  0
   -5.7157    5.5285    0.0000 C   0  0  0  0  0  0  0  0  0  0  0  0
   -5.0012    4.2910    0.0000 C   0  0  0  0  0  0  0  0  0  0  0  0
   -6.4302    1.8160    0.0000 C   0  0  0  0  0  0  0  0  0  0  0  0
   -6.4302    3.4660    0.0000 C   0  0  0  0  0  0  0  0  0  0  0  0
   -2.8578    2.2285    0.0000 C   0  0  0  0  0  0  0  0  0  0  0  0
   -4.2868    4.7035    0.0000 C   0  0  0  0  0  0  0  0  0  0  0  0
   -7.1447    3.0535    0.0000 C   0  0  0  0  0  0  0  0  0  0  0  0
   -7.8591    3.4660    0.0000 N   0  0  0  0  0  0  0  0  0  0  0  0
   -5.7157    2.2285    0.0000 N   0  0  0  0  0  0  0  0  0  0  0  0
   -7.1447    2.2285    0.0000 N   0  0  0  0  0  0  0  0  0  0  0  0
   -5.7157    4.7035    0.0000 N   0  0  0  0  0  0  0  0  0  0  0  0
   -5.0012    6.7660    0.0000 O   0  0  0  0  0  0  0  0  0  0  0  0
   -6.4302    5.9410    0.0000 O   0  0  0  0  0  0  0  0  0  0  0  0
   -3.5253    1.7436    0.0000 O   0  0  0  0  0  0  0  0  0  0  0  0
   -3.5723    3.4660    0.0000 S   0  0  0  0  0  0  0  0  0  0  0  0
   -3.5723    4.2910    0.0000 S   0  0  0  0  0  0  0  0  0  0  0  0
    0.0000    0.0000    0.0000 H   0  0  0  0  0  0  0  0  0  0  0  0
    0.0000    0.0000    0.0000 H   0  0  0  0  0  0  0  0  0  0  0  0
    0.0000    0.0000    0.0000 H   0  0  0  0  0  0  0  0  0  0  0  0
    0.0000    0.0000    0.0000 H   0  0  0  0  0  0  0  0  0  0  0  0
    0.0000    0.0000    0.0000 H   0  0  0  0  0  0  0  0  0  0  0  0
    0.0000    0.0000    0.0000 H   0  0  0  0  0  0  0  0  0  0  0  0
    0.0000    0.0000    0.0000 H   0  0  0  0  0  0  0  0  0  0  0  0
    0.0000    0.0000    0.0000 H   0  0  0  0  0  0  0  0  0  0  0  0
    0.0000    0.0000    0.0000 H   0  0  0  0  0  0  0  0  0  0  0  0
    0.0000    0.0000    0.0000 H   0  0  0  0  0  0  0  0  0  0  0  0
    0.0000    0.0000    0.0000 H   0  0  0  0  0  0  0  0  0  0  0  0
    0.0000    0.0000    0.0000 H   0  0  0  0  0  0  0  0  0  0  0  0
    0.0000    0.0000    0.0000 H   0  0  0  0  0  0  0  0  0  0  0  0
    0.0000    0.0000    0.0000 H   0  0  0  0  0  0  0  0  0  0  0  0
    0.0000    0.0000    0.0000 H   0  0  0  0  0  0  0  0  0  0  0  0
    0.0000    0.0000    0.0000 H   0  0  0  0  0  0  0  0  0  0  0  0
    0.0000    0.0000    0.0000 H   0  0  0  0  0  0  0  0  0  0  0  0
    0.0000    0.0000    0.0000 H   0  0  0  0  0  0  0  0  0  0  0  0
    0.0000    0.0000    0.0000 H   0  0  0  0  0  0  0  0  0  0  0  0
    0.0000    0.0000    0.0000 H   0  0  0  0  0  0  0  0  0  0  0  0
    0.0000    0.0000    0.0000 H   0  0  0  0  0  0  0  0  0  0  0  0
    0.0000    0.0000    0.0000 H   0  0  0  0  0  0  0  0  0  0  0  0
    0.0000    0.0000    0.0000 H   0  0  0  0  0  0  0  0  0  0  0  0
    0.0000    0.0000    0.0000 H   0  0  0  0  0  0  0  0  0  0  0  0
    0.0000    0.0000    0.0000 H   0  0  0  0  0  0  0  0  0  0  0  0
    0.0000    0.0000    0.0000 H   0  0  0  0  0  0  0  0  0  0  0  0
  4  3  1  0
  6  5  1  0
  7  3  1  0
 12  1  1  0
 13  2  1  0
 14  8  2  0
 14  9  1  0
 15  4  1  0
 15 10  1  0
 16  5  1  0
 16 12  2  0
 17 14  1  0
 18 17  2  3
 19  8  1  0
 19 13  2  0
 20 13  1  0
 20 17  1  0
 21  9  1  0
 21 11  1  0
 21 12  1  0
 22  6  1  0
 23 11  2  0
 24  7  1  0
 24 15  1  0
 25 10  1  0
 26 16  1  0
 26 25  1  0
  1 27  1  0
  1 28  1  0
  1 29  1  0
  2 30  1  0
  2 31  1  0
  2 32  1  0
  3 33  1  0
  3 34  1  0
  4 35  1  0
  4 36  1  0
  5 37  1  0
  5 38  1  0
  6 39  1  0
  6 40  1  0
  7 41  1  0
  7 42  1  0
  8 43  1  0
  9 44  1  0
  9 45  1  0
 10 46  1  0
 10 47  1  0
 11 48  1  0
 15 49  1  0
 18 50  1  0
 20 51  1  0
 22 52  1  0
M  END
>  <ALOGPS_LOGP>  (1) 
1.21

>  <ALOGPS_LOGS>  (1) 
-3.41

>  <ALOGPS_SOLUBILITY>  (1) 
1.56e-01 g/l

>  <DATABASE_ID>  (1) 
DB08966

>  <DATABASE_NAME>  (1) 
drugbank

>  <DRUGBANK_ID>  (1) 
DB08966

>  <DRUG_GROUPS>  (1) 
approved

>  <EXACT_MASS>  (1) 
398.144632098

>  <FORMULA>  (1) 
C17H26N4O3S2

>  <GENERIC_NAME>  (1) 
Fursultiamine

>  <INCHI_IDENTIFIER>  (1) 
InChI=1S/C17H26N4O3S2/c1-12(16(5-6-22)26-25-10-15-4-3-7-24-15)21(11-23)9-14-8-19-13(2)20-17(14)18/h8,11,15,22H,3-7,9-10H2,1-2H3,(H2,18,19,20)/b16-12+

>  <INCHI_KEY>  (1) 
JTLXCMOFVBXEKD-FOWTUZBSSA-N

>  <JCHEM_ACCEPTOR_COUNT>  (1) 
6

>  <JCHEM_AVERAGE_POLARIZABILITY>  (1) 
42.019489186497175

>  <JCHEM_BIOAVAILABILITY>  (1) 
1

>  <JCHEM_DONOR_COUNT>  (1) 
3

>  <JCHEM_FORMAL_CHARGE>  (1) 
0

>  <JCHEM_GHOSE_FILTER>  (1) 
0

>  <JCHEM_IUPAC>  (1) 
N-[(2E)-5-hydroxy-3-[(oxolan-2-ylmethyl)disulfanyl]pent-2-en-2-yl]-N-[(6-imino-2-methyl-1,6-dihydropyrimidin-5-yl)methyl]formamide

>  <JCHEM_LOGP>  (1) 
-0.8864862436666661

>  <JCHEM_MDDR_LIKE_RULE>  (1) 
0

>  <JCHEM_NUMBER_OF_RINGS>  (1) 
2

>  <JCHEM_PHYSIOLOGICAL_CHARGE>  (1) 
1

>  <JCHEM_PKA>  (1) 
15.898248540617818

>  <JCHEM_PKA_STRONGEST_ACIDIC>  (1) 
3.4472544080156866

>  <JCHEM_PKA_STRONGEST_BASIC>  (1) 
12.410254977432778

>  <JCHEM_POLAR_SURFACE_AREA>  (1) 
98.01

>  <JCHEM_REFRACTIVITY>  (1) 
120.31799999999998

>  <JCHEM_ROTATABLE_BOND_COUNT>  (1) 
9

>  <JCHEM_RULE_OF_FIVE>  (1) 
1

>  <JCHEM_TRADITIONAL_IUPAC>  (1) 
TTFD

>  <JCHEM_VEBER_RULE>  (1) 
0

>  <MOLECULAR_WEIGHT>  (1) 
398.543

>  <SMILES>  (1) 
C\C(N(CC1=CN=C(C)NC1=N)C=O)=C(\CCO)SSCC1CCCO1

$$$$
