
     RDKit          2D

 44 45  0  0  0  0  0  0  0  0999 V2000
    8.5736    5.7750    0.0000 C   0  0  0  0  0  0  0  0  0  0  0  0
    9.2881    6.1875    0.0000 C   0  0  0  0  0  0  0  0  0  0  0  0
   10.7170    8.6625    0.0000 C   0  0  0  0  0  0  0  0  0  0  0  0
   10.7170    9.4875    0.0000 C   0  0  0  0  0  0  0  0  0  0  0  0
   10.0025    8.2500    0.0000 C   0  0  0  0  0  0  0  0  0  0  0  0
    7.8591    6.1875    0.0000 C   0  0  0  0  0  0  0  0  0  0  0  0
    9.2881    7.0125    0.0000 C   0  0  0  0  0  0  0  0  0  0  0  0
    2.8578    7.4250    0.0000 C   0  0  0  0  0  0  0  0  0  0  0  0
    3.5723    7.0125    0.0000 C   0  0  0  0  0  0  0  0  0  0  0  0
    5.0012    7.0125    0.0000 C   0  0  0  0  0  0  0  0  0  0  0  0
    5.7157    7.4250    0.0000 C   0  0  0  0  0  0  0  0  0  0  0  0
    9.2881    9.4875    0.0000 C   0  0  0  0  0  0  0  0  0  0  0  0
   10.0025    9.9000    0.0000 C   0  0  0  0  0  0  0  0  0  0  0  0
    9.2881    8.6625    0.0000 C   0  0  0  0  0  0  0  0  0  0  0  0
    7.8591    7.0125    0.0000 C   0  0  0  0  0  0  0  0  0  0  0  0
    8.5736    7.4250    0.0000 C   0  0  0  0  0  0  0  0  0  0  0  0
    7.1447    7.4250    0.0000 C   0  0  0  0  0  0  0  0  0  0  0  0
   10.0025   10.7250    0.0000 C   0  0  0  0  0  0  0  0  0  0  0  0
   10.0025   11.5500    0.0000 F   0  0  0  0  0  0  0  0  0  0  0  0
    9.1775   10.7250    0.0000 F   0  0  0  0  0  0  0  0  0  0  0  0
   10.8275   10.7250    0.0000 F   0  0  0  0  0  0  0  0  0  0  0  0
    8.5736    8.2500    0.0000 N   0  0  0  0  0  0  0  0  0  0  0  0
    2.1434    7.0125    0.0000 O   0  0  0  0  0  0  0  0  0  0  0  0
    7.1447    8.2500    0.0000 O   0  0  0  0  0  0  0  0  0  0  0  0
    4.2868    7.4250    0.0000 O   0  0  0  0  0  0  0  0  0  0  0  0
    6.4302    7.0125    0.0000 O   0  0  0  0  0  0  0  0  0  0  0  0
    0.0000    0.0000    0.0000 H   0  0  0  0  0  0  0  0  0  0  0  0
    0.0000    0.0000    0.0000 H   0  0  0  0  0  0  0  0  0  0  0  0
    0.0000    0.0000    0.0000 H   0  0  0  0  0  0  0  0  0  0  0  0
    0.0000    0.0000    0.0000 H   0  0  0  0  0  0  0  0  0  0  0  0
    0.0000    0.0000    0.0000 H   0  0  0  0  0  0  0  0  0  0  0  0
    0.0000    0.0000    0.0000 H   0  0  0  0  0  0  0  0  0  0  0  0
    0.0000    0.0000    0.0000 H   0  0  0  0  0  0  0  0  0  0  0  0
    0.0000    0.0000    0.0000 H   0  0  0  0  0  0  0  0  0  0  0  0
    0.0000    0.0000    0.0000 H   0  0  0  0  0  0  0  0  0  0  0  0
    0.0000    0.0000    0.0000 H   0  0  0  0  0  0  0  0  0  0  0  0
    0.0000    0.0000    0.0000 H   0  0  0  0  0  0  0  0  0  0  0  0
    0.0000    0.0000    0.0000 H   0  0  0  0  0  0  0  0  0  0  0  0
    0.0000    0.0000    0.0000 H   0  0  0  0  0  0  0  0  0  0  0  0
    0.0000    0.0000    0.0000 H   0  0  0  0  0  0  0  0  0  0  0  0
    0.0000    0.0000    0.0000 H   0  0  0  0  0  0  0  0  0  0  0  0
    0.0000    0.0000    0.0000 H   0  0  0  0  0  0  0  0  0  0  0  0
    0.0000    0.0000    0.0000 H   0  0  0  0  0  0  0  0  0  0  0  0
    0.0000    0.0000    0.0000 H   0  0  0  0  0  0  0  0  0  0  0  0
  2  1  2  0
  4  3  2  0
  5  3  1  0
  6  1  1  0
  7  2  1  0
  9  8  1  0
 11 10  1  0
 13  4  1  0
 13 12  2  0
 14  5  2  0
 14 12  1  0
 15  6  2  0
 16  7  2  0
 16 15  1  0
 17 15  1  0
 18 13  1  0
 19 18  1  0
 20 18  1  0
 21 18  1  0
 22 14  1  0
 22 16  1  0
 23  8  1  0
 24 17  2  0
 25  9  1  0
 25 10  1  0
 26 11  1  0
 26 17  1  0
  1 27  1  0
  2 28  1  0
  3 29  1  0
  4 30  1  0
  5 31  1  0
  6 32  1  0
  7 33  1  0
  8 34  1  0
  8 35  1  0
  9 36  1  0
  9 37  1  0
 10 38  1  0
 10 39  1  0
 11 40  1  0
 11 41  1  0
 12 42  1  0
 22 43  1  0
 23 44  1  0
M  END
>  <ALOGPS_LOGP>  (1) 
3.53

>  <ALOGPS_LOGS>  (1) 
-4.60

>  <ALOGPS_SOLUBILITY>  (1) 
9.36e-03 g/l

>  <DATABASE_ID>  (1) 
DB08984

>  <DATABASE_NAME>  (1) 
drugbank

>  <DRUGBANK_ID>  (1) 
DB08984

>  <DRUG_GROUPS>  (1) 
approved; investigational

>  <EXACT_MASS>  (1) 
369.118792684

>  <FORMULA>  (1) 
C18H18F3NO4

>  <GENERIC_NAME>  (1) 
Etofenamate

>  <INCHI_IDENTIFIER>  (1) 
InChI=1S/C18H18F3NO4/c19-18(20,21)13-4-3-5-14(12-13)22-16-7-2-1-6-15(16)17(24)26-11-10-25-9-8-23/h1-7,12,22-23H,8-11H2

>  <INCHI_KEY>  (1) 
XILVEPYQJIOVNB-UHFFFAOYSA-N

>  <INTERNATIONAL_BRANDS>  (1) 
Activon; Aspitopic; Bayagel; Bayro; Etobay; Gemadol; Glasel; Rheumon; Ticatrop

>  <JCHEM_ACCEPTOR_COUNT>  (1) 
4

>  <JCHEM_AVERAGE_POLARIZABILITY>  (1) 
35.57135970925744

>  <JCHEM_BIOAVAILABILITY>  (1) 
1

>  <JCHEM_DONOR_COUNT>  (1) 
2

>  <JCHEM_FORMAL_CHARGE>  (1) 
0

>  <JCHEM_GHOSE_FILTER>  (1) 
1

>  <JCHEM_IUPAC>  (1) 
2-(2-hydroxyethoxy)ethyl 2-{[3-(trifluoromethyl)phenyl]amino}benzoate

>  <JCHEM_LOGP>  (1) 
4.857419516666667

>  <JCHEM_MDDR_LIKE_RULE>  (1) 
0

>  <JCHEM_NUMBER_OF_RINGS>  (1) 
2

>  <JCHEM_PHYSIOLOGICAL_CHARGE>  (1) 
0

>  <JCHEM_PKA>  (1) 
17.50975428929937

>  <JCHEM_PKA_STRONGEST_ACIDIC>  (1) 
15.121154992658976

>  <JCHEM_PKA_STRONGEST_BASIC>  (1) 
-2.158221406195225

>  <JCHEM_POLAR_SURFACE_AREA>  (1) 
67.79

>  <JCHEM_REFRACTIVITY>  (1) 
89.87900000000002

>  <JCHEM_ROTATABLE_BOND_COUNT>  (1) 
10

>  <JCHEM_RULE_OF_FIVE>  (1) 
1

>  <JCHEM_TRADITIONAL_IUPAC>  (1) 
bayro

>  <JCHEM_VEBER_RULE>  (1) 
0

>  <MOLECULAR_WEIGHT>  (1) 
369.335

>  <SMILES>  (1) 
OCCOCCOC(=O)C1=CC=CC=C1NC1=CC=CC(=C1)C(F)(F)F

$$$$
