
     RDKit          2D

 39 41  0  0  0  0  0  0  0  0999 V2000
    4.3200    3.6262    0.0000 C   0  0  0  0  0  0  0  0  0  0  0  0
    0.4620    6.0576    0.0000 C   0  0  0  0  0  0  0  0  0  0  0  0
   -1.8579    2.0392    0.0000 C   0  0  0  0  0  0  0  0  0  0  0  0
    1.0668    5.4964    0.0000 C   0  0  0  0  0  0  0  0  0  0  0  0
   -1.0695    1.7960    0.0000 C   0  0  0  0  0  0  0  0  0  0  0  0
   -0.3262    5.8144    0.0000 C   0  0  0  0  0  0  0  0  0  0  0  0
   -2.0414    2.8435    0.0000 C   0  0  0  0  0  0  0  0  0  0  0  0
    0.8832    4.6921    0.0000 C   0  0  0  0  0  0  0  0  0  0  0  0
   -0.4648    2.3572    0.0000 C   0  0  0  0  0  0  0  0  0  0  0  0
   -1.3256    4.8871    0.0000 C   0  0  0  0  0  0  0  0  0  0  0  0
   -1.7381    4.1726    0.0000 C   0  0  0  0  0  0  0  0  0  0  0  0
    2.8911    3.6262    0.0000 C   0  0  0  0  0  0  0  0  0  0  0  0
    2.1766    3.2137    0.0000 C   0  0  0  0  0  0  0  0  0  0  0  0
   -0.5098    5.0101    0.0000 C   0  0  0  0  0  0  0  0  0  0  0  0
   -1.4367    3.4047    0.0000 C   0  0  0  0  0  0  0  0  0  0  0  0
    0.0949    4.4489    0.0000 C   0  0  0  0  0  0  0  0  0  0  0  0
   -0.6483    3.1615    0.0000 C   0  0  0  0  0  0  0  0  0  0  0  0
    0.0332    3.6262    0.0000 C   0  0  0  0  0  0  0  0  0  0  0  0
    3.6056    3.2137    0.0000 N   0  0  0  0  0  0  0  0  0  0  0  0
    0.7477    3.2137    0.0000 N   0  0  0  0  0  0  0  0  0  0  0  0
    1.4622    3.6262    0.0000 O   0  0  0  0  0  0  0  0  0  0  0  0
    0.0000    0.0000    0.0000 H   0  0  0  0  0  0  0  0  0  0  0  0
    0.0000    0.0000    0.0000 H   0  0  0  0  0  0  0  0  0  0  0  0
    0.0000    0.0000    0.0000 H   0  0  0  0  0  0  0  0  0  0  0  0
    0.0000    0.0000    0.0000 H   0  0  0  0  0  0  0  0  0  0  0  0
    0.0000    0.0000    0.0000 H   0  0  0  0  0  0  0  0  0  0  0  0
    0.0000    0.0000    0.0000 H   0  0  0  0  0  0  0  0  0  0  0  0
    0.0000    0.0000    0.0000 H   0  0  0  0  0  0  0  0  0  0  0  0
    0.0000    0.0000    0.0000 H   0  0  0  0  0  0  0  0  0  0  0  0
    0.0000    0.0000    0.0000 H   0  0  0  0  0  0  0  0  0  0  0  0
    0.0000    0.0000    0.0000 H   0  0  0  0  0  0  0  0  0  0  0  0
    0.0000    0.0000    0.0000 H   0  0  0  0  0  0  0  0  0  0  0  0
    0.0000    0.0000    0.0000 H   0  0  0  0  0  0  0  0  0  0  0  0
    0.0000    0.0000    0.0000 H   0  0  0  0  0  0  0  0  0  0  0  0
    0.0000    0.0000    0.0000 H   0  0  0  0  0  0  0  0  0  0  0  0
    0.0000    0.0000    0.0000 H   0  0  0  0  0  0  0  0  0  0  0  0
    0.0000    0.0000    0.0000 H   0  0  0  0  0  0  0  0  0  0  0  0
    0.0000    0.0000    0.0000 H   0  0  0  0  0  0  0  0  0  0  0  0
    0.0000    0.0000    0.0000 H   0  0  0  0  0  0  0  0  0  0  0  0
  4  2  2  0
  5  3  2  0
  6  2  1  0
  7  3  1  0
  8  4  1  0
  9  5  1  0
 11 10  2  0
 13 12  1  0
 14  6  2  0
 14 10  1  0
 15  7  2  0
 15 11  1  0
 16  8  2  0
 16 14  1  0
 17  9  2  0
 17 15  1  0
 18 16  1  0
 18 17  1  0
 19  1  1  0
 19 12  1  0
 20 18  2  3
 21 13  1  0
 21 20  1  0
  1 22  1  0
  1 23  1  0
  1 24  1  0
  2 25  1  0
  3 26  1  0
  4 27  1  0
  5 28  1  0
  6 29  1  0
  7 30  1  0
  8 31  1  0
  9 32  1  0
 10 33  1  0
 11 34  1  0
 12 35  1  0
 12 36  1  0
 13 37  1  0
 13 38  1  0
 19 39  1  0
M  END
>  <ALOGPS_LOGP>  (1) 
3.21

>  <ALOGPS_LOGS>  (1) 
-5.00

>  <ALOGPS_SOLUBILITY>  (1) 
2.81e-03 g/l

>  <DATABASE_ID>  (1) 
DB08998

>  <DATABASE_NAME>  (1) 
drugbank

>  <DRUGBANK_ID>  (1) 
DB08998

>  <DRUG_GROUPS>  (1) 
approved

>  <EXACT_MASS>  (1) 
278.141913208

>  <FORMULA>  (1) 
C18H18N2O

>  <GENERIC_NAME>  (1) 
Demexiptiline

>  <INCHI_IDENTIFIER>  (1) 
InChI=1S/C18H18N2O/c1-19-12-13-21-20-18-16-8-4-2-6-14(16)10-11-15-7-3-5-9-17(15)18/h2-11,19H,12-13H2,1H3

>  <INCHI_KEY>  (1) 
SEDQWOMFMIJKCU-UHFFFAOYSA-N

>  <INTERNATIONAL_BRANDS>  (1) 
Deparon; Tinoran

>  <JCHEM_ACCEPTOR_COUNT>  (1) 
3

>  <JCHEM_AVERAGE_POLARIZABILITY>  (1) 
32.45219932691706

>  <JCHEM_BIOAVAILABILITY>  (1) 
1

>  <JCHEM_DONOR_COUNT>  (1) 
1

>  <JCHEM_FORMAL_CHARGE>  (1) 
0

>  <JCHEM_GHOSE_FILTER>  (1) 
1

>  <JCHEM_IUPAC>  (1) 
methyl({2-[({tricyclo[9.4.0.0³,⁸]pentadeca-1(15),3,5,7,9,11,13-heptaen-2-ylidene}amino)oxy]ethyl})amine

>  <JCHEM_LOGP>  (1) 
3.8222311663333324

>  <JCHEM_MDDR_LIKE_RULE>  (1) 
0

>  <JCHEM_NUMBER_OF_RINGS>  (1) 
3

>  <JCHEM_PHYSIOLOGICAL_CHARGE>  (1) 
1

>  <JCHEM_PKA_STRONGEST_BASIC>  (1) 
9.091282914356999

>  <JCHEM_POLAR_SURFACE_AREA>  (1) 
33.620000000000005

>  <JCHEM_REFRACTIVITY>  (1) 
87.05869999999999

>  <JCHEM_ROTATABLE_BOND_COUNT>  (1) 
4

>  <JCHEM_RULE_OF_FIVE>  (1) 
1

>  <JCHEM_TRADITIONAL_IUPAC>  (1) 
demexiptiline

>  <JCHEM_VEBER_RULE>  (1) 
1

>  <MOLECULAR_WEIGHT>  (1) 
278.3483

>  <SALTS>  (1) 
Demexiptiline hydrochloride

>  <SMILES>  (1) 
CNCCON=C1C2=CC=CC=C2C=CC2=CC=CC=C12

$$$$
