
     RDKit          2D

 97100  0  0  1  0  0  0  0  0999 V2000
   17.5301   -5.5000    0.0000 O   0  0  0  0  0  0  0  0  0  0  0  0
   16.8157   -6.7375    0.0000 O   0  0  0  0  0  0  0  0  0  0  0  0
   14.6722   -5.5000    0.0000 O   0  0  0  0  0  0  0  0  0  0  0  0
   20.3880   -7.1500    0.0000 O   0  0  0  0  0  0  0  0  0  0  0  0
   19.6736   -5.9125    0.0000 O   0  0  0  0  0  0  0  0  0  0  0  0
   22.5316   -5.9125    0.0000 O   0  0  0  0  0  0  0  0  0  0  0  0
   14.6722   -7.1500    0.0000 O   0  0  0  0  0  0  0  0  0  0  0  0
   13.9577   -6.7375    0.0000 O   0  0  0  0  0  0  0  0  0  0  0  0
   17.5301   -7.1500    0.0000 O   0  0  0  0  0  0  0  0  0  0  0  0
   18.9591   -7.9750    0.0000 O   0  0  0  0  0  0  0  0  0  0  0  0
   20.3880   -5.5000    0.0000 O   0  0  0  0  0  0  0  0  0  0  0  0
   13.2432   -4.6750    0.0000 O   0  0  0  0  0  0  0  0  0  0  0  0
   23.2460   -7.1500    0.0000 O   0  0  0  0  0  0  0  0  0  0  0  0
   16.8157   -8.3875    0.0000 O   0  0  0  0  0  0  0  0  0  0  0  0
   11.8142   -5.5000    0.0000 O   0  0  0  0  0  0  0  0  0  0  0  0
   11.8142   -7.1500    0.0000 O   0  0  0  0  0  0  0  0  0  0  0  0
   19.6736   -4.2625    0.0000 O   0  0  0  0  0  0  0  0  0  0  0  0
   22.5316   -4.2625    0.0000 O   0  0  0  0  0  0  0  0  0  0  0  0
   18.2447   -4.2625    0.0000 O   0  0  0  0  0  0  0  0  0  0  0  0
   17.5301   -4.6750    0.0000 O   0  0  0  0  0  0  0  0  0  0  0  0
   12.5288   -8.3875    0.0000 O   0  0  0  0  0  0  0  0  0  0  0  0
   13.9577   -8.3875    0.0000 O   0  0  0  0  0  0  0  0  0  0  0  0
   22.5316   -9.2126    0.0000 O   0  0  0  0  0  0  0  0  0  0  0  0
   16.1012   -4.6750    0.0000 N   0  0  0  0  0  0  0  0  0  0  0  0
   21.8171   -7.9750    0.0000 N   0  0  0  0  0  0  0  0  0  0  0  0
   15.3867   -5.9125    0.0000 C   0  0  0  0  0  0  0  0  0  0  0  0
   16.1012   -5.5000    0.0000 C   0  0  0  0  0  0  0  0  0  0  0  0
   16.8157   -5.9125    0.0000 C   0  0  0  0  0  0  0  0  0  0  0  0
   15.3867   -6.7375    0.0000 C   0  0  0  0  0  0  0  0  0  0  0  0
   18.2447   -5.9125    0.0000 C   0  0  0  0  0  0  0  0  0  0  0  0
   16.1012   -7.1500    0.0000 C   0  0  0  0  0  0  0  0  0  0  0  0
   18.2447   -6.7375    0.0000 C   0  0  0  0  0  0  0  0  0  0  0  0
   18.9591   -7.1500    0.0000 C   0  0  0  0  0  0  0  0  0  0  0  0
   21.1026   -6.7375    0.0000 C   0  0  0  0  0  0  0  0  0  0  0  0
   19.6736   -6.7375    0.0000 C   0  0  0  0  0  0  0  0  0  0  0  0
   18.9591   -5.5000    0.0000 C   0  0  0  0  0  0  0  0  0  0  0  0
   21.8171   -7.1500    0.0000 C   0  0  0  0  0  0  0  0  0  0  0  0
   21.1026   -5.9125    0.0000 C   0  0  0  0  0  0  0  0  0  0  0  0
   13.9577   -5.9125    0.0000 C   0  0  0  0  0  0  0  0  0  0  0  0
   21.8171   -5.5000    0.0000 C   0  0  0  0  0  0  0  0  0  0  0  0
   13.2432   -5.5000    0.0000 C   0  0  0  0  0  0  0  0  0  0  0  0
   22.5316   -6.7375    0.0000 C   0  0  0  0  0  0  0  0  0  0  0  0
   16.1012   -7.9750    0.0000 C   0  0  0  0  0  0  0  0  0  0  0  0
   12.5288   -5.9125    0.0000 C   0  0  0  0  0  0  0  0  0  0  0  0
   12.5288   -6.7375    0.0000 C   0  0  0  0  0  0  0  0  0  0  0  0
   13.2432   -7.1500    0.0000 C   0  0  0  0  0  0  0  0  0  0  0  0
   18.9591   -4.6750    0.0000 C   0  0  0  0  0  0  0  0  0  0  0  0
   21.8171   -4.6750    0.0000 C   0  0  0  0  0  0  0  0  0  0  0  0
   16.8157   -4.2625    0.0000 C   0  0  0  0  0  0  0  0  0  0  0  0
   13.2432   -7.9750    0.0000 C   0  0  0  0  0  0  0  0  0  0  0  0
   22.5316   -8.3875    0.0000 C   0  0  0  0  0  0  0  0  0  0  0  0
   16.8157   -3.4375    0.0000 C   0  0  0  0  0  0  0  0  0  0  0  0
   23.2460   -7.9750    0.0000 C   0  0  0  0  0  0  0  0  0  0  0  0
    0.0000    0.0000    0.0000 H   0  0  0  0  0  0  0  0  0  0  0  0
    0.0000    0.0000    0.0000 H   0  0  0  0  0  0  0  0  0  0  0  0
    0.0000    0.0000    0.0000 H   0  0  0  0  0  0  0  0  0  0  0  0
    0.0000    0.0000    0.0000 H   0  0  0  0  0  0  0  0  0  0  0  0
    0.0000    0.0000    0.0000 H   0  0  0  0  0  0  0  0  0  0  0  0
    0.0000    0.0000    0.0000 H   0  0  0  0  0  0  0  0  0  0  0  0
    0.0000    0.0000    0.0000 H   0  0  0  0  0  0  0  0  0  0  0  0
    0.0000    0.0000    0.0000 H   0  0  0  0  0  0  0  0  0  0  0  0
    0.0000    0.0000    0.0000 H   0  0  0  0  0  0  0  0  0  0  0  0
    0.0000    0.0000    0.0000 H   0  0  0  0  0  0  0  0  0  0  0  0
    0.0000    0.0000    0.0000 H   0  0  0  0  0  0  0  0  0  0  0  0
    0.0000    0.0000    0.0000 H   0  0  0  0  0  0  0  0  0  0  0  0
    0.0000    0.0000    0.0000 H   0  0  0  0  0  0  0  0  0  0  0  0
    0.0000    0.0000    0.0000 H   0  0  0  0  0  0  0  0  0  0  0  0
    0.0000    0.0000    0.0000 H   0  0  0  0  0  0  0  0  0  0  0  0
    0.0000    0.0000    0.0000 H   0  0  0  0  0  0  0  0  0  0  0  0
    0.0000    0.0000    0.0000 H   0  0  0  0  0  0  0  0  0  0  0  0
    0.0000    0.0000    0.0000 H   0  0  0  0  0  0  0  0  0  0  0  0
    0.0000    0.0000    0.0000 H   0  0  0  0  0  0  0  0  0  0  0  0
    0.0000    0.0000    0.0000 H   0  0  0  0  0  0  0  0  0  0  0  0
    0.0000    0.0000    0.0000 H   0  0  0  0  0  0  0  0  0  0  0  0
    0.0000    0.0000    0.0000 H   0  0  0  0  0  0  0  0  0  0  0  0
    0.0000    0.0000    0.0000 H   0  0  0  0  0  0  0  0  0  0  0  0
    0.0000    0.0000    0.0000 H   0  0  0  0  0  0  0  0  0  0  0  0
    0.0000    0.0000    0.0000 H   0  0  0  0  0  0  0  0  0  0  0  0
    0.0000    0.0000    0.0000 H   0  0  0  0  0  0  0  0  0  0  0  0
    0.0000    0.0000    0.0000 H   0  0  0  0  0  0  0  0  0  0  0  0
    0.0000    0.0000    0.0000 H   0  0  0  0  0  0  0  0  0  0  0  0
    0.0000    0.0000    0.0000 H   0  0  0  0  0  0  0  0  0  0  0  0
    0.0000    0.0000    0.0000 H   0  0  0  0  0  0  0  0  0  0  0  0
    0.0000    0.0000    0.0000 H   0  0  0  0  0  0  0  0  0  0  0  0
    0.0000    0.0000    0.0000 H   0  0  0  0  0  0  0  0  0  0  0  0
    0.0000    0.0000    0.0000 H   0  0  0  0  0  0  0  0  0  0  0  0
    0.0000    0.0000    0.0000 H   0  0  0  0  0  0  0  0  0  0  0  0
    0.0000    0.0000    0.0000 H   0  0  0  0  0  0  0  0  0  0  0  0
    0.0000    0.0000    0.0000 H   0  0  0  0  0  0  0  0  0  0  0  0
    0.0000    0.0000    0.0000 H   0  0  0  0  0  0  0  0  0  0  0  0
    0.0000    0.0000    0.0000 H   0  0  0  0  0  0  0  0  0  0  0  0
    0.0000    0.0000    0.0000 H   0  0  0  0  0  0  0  0  0  0  0  0
    0.0000    0.0000    0.0000 H   0  0  0  0  0  0  0  0  0  0  0  0
    0.0000    0.0000    0.0000 H   0  0  0  0  0  0  0  0  0  0  0  0
    0.0000    0.0000    0.0000 H   0  0  0  0  0  0  0  0  0  0  0  0
    0.0000    0.0000    0.0000 H   0  0  0  0  0  0  0  0  0  0  0  0
    0.0000    0.0000    0.0000 H   0  0  0  0  0  0  0  0  0  0  0  0
 28  1  1  1
 30  1  1  6
  2 28  1  0
  2 31  1  0
  3 26  1  0
 39  3  1  1
  4 34  1  0
 35  4  1  6
  5 35  1  0
  5 36  1  0
  6 40  1  0
  6 42  1  0
 29  7  1  1
  8 39  1  0
  8 46  1  0
 32  9  1  1
 33 10  1  6
 38 11  1  6
 41 12  1  1
 42 13  1  6
 14 43  1  0
 44 15  1  6
 45 16  1  1
 17 47  1  0
 18 48  1  0
 19 47  2  0
 20 49  2  0
 21 50  1  0
 22 50  2  0
 23 51  2  0
 27 24  1  1
 24 49  1  0
 37 25  1  6
 25 51  1  0
 26 27  1  0
 26 29  1  0
 27 28  1  0
 29 31  1  0
 30 32  1  0
 30 36  1  0
 31 43  1  6
 32 33  1  0
 33 35  1  0
 34 37  1  0
 34 38  1  0
 36 47  1  1
 37 42  1  0
 38 40  1  0
 39 41  1  0
 40 48  1  1
 41 44  1  0
 44 45  1  0
 45 46  1  0
 46 50  1  6
 49 52  1  0
 51 53  1  0
  7 54  1  0
  9 55  1  0
 10 56  1  0
 11 57  1  0
 12 58  1  0
 13 59  1  0
 14 60  1  0
 15 61  1  0
 16 62  1  0
 17 63  1  0
 18 64  1  0
 21 65  1  0
 24 66  1  0
 25 67  1  0
 26 68  1  0
 27 69  1  0
 28 70  1  0
 29 71  1  0
 30 72  1  0
 31 73  1  0
 32 74  1  0
 33 75  1  0
 34 76  1  0
 35 77  1  0
 36 78  1  0
 37 79  1  0
 38 80  1  0
 39 81  1  0
 40 82  1  0
 41 83  1  0
 42 84  1  0
 43 85  1  0
 43 86  1  0
 44 87  1  0
 45 88  1  0
 46 89  1  0
 48 90  1  0
 48 91  1  0
 52 92  1  0
 52 93  1  0
 52 94  1  0
 53 95  1  0
 53 96  1  0
 53 97  1  0
M  END
>  <ALOGPS_LOGP>  (1) 
-1.82

>  <ALOGPS_LOGS>  (1) 
-1.22

>  <ALOGPS_SOLUBILITY>  (1) 
4.66e+01 g/l

>  <DATABASE_ID>  (1) 
DB08818

>  <DATABASE_NAME>  (1) 
drugbank

>  <DRUGBANK_ID>  (1) 
DB08818

>  <DRUG_GROUPS>  (1) 
approved; vet_approved

>  <EXACT_MASS>  (1) 
776.233485724

>  <FORMULA>  (1) 
C28H44N2O23

>  <GENERIC_NAME>  (1) 
Hyaluronic acid

>  <INCHI_IDENTIFIER>  (1) 
InChI=1S/C28H44N2O23/c1-5(33)29-9-18(11(35)7(3-31)47-25(9)46)49-28-17(41)15(39)20(22(53-28)24(44)45)51-26-10(30-6(2)34)19(12(36)8(4-32)48-26)50-27-16(40)13(37)14(38)21(52-27)23(42)43/h7-22,25-28,31-32,35-41,46H,3-4H2,1-2H3,(H,29,33)(H,30,34)(H,42,43)(H,44,45)/t7-,8-,9-,10-,11-,12-,13+,14+,15-,16-,17-,18?,19?,20+,21+,22+,25-,26+,27-,28-/m1/s1

>  <INCHI_KEY>  (1) 
KIUKXJAPPMFGSW-MNSSHETKSA-N

>  <INTERNATIONAL_BRANDS>  (1) 
AMO Vitrax; AMVISIC Plus; Cystistar; Euflexxa; Hyalart; Hyalgan; Hylo-Comod; Legend; Monovisc; Recosyn; Synvisc; Viscure; Yardel

>  <JCHEM_ACCEPTOR_COUNT>  (1) 
23

>  <JCHEM_AVERAGE_POLARIZABILITY>  (1) 
70.55776779345399

>  <JCHEM_BIOAVAILABILITY>  (1) 
0

>  <JCHEM_DONOR_COUNT>  (1) 
14

>  <JCHEM_FORMAL_CHARGE>  (1) 
0

>  <JCHEM_GHOSE_FILTER>  (1) 
0

>  <JCHEM_IUPAC>  (1) 
(2S,3S,4R,5R,6R)-3-{[(2S,3R,5S,6R)-4-{[(2R,3R,4S,5S,6S)-6-carboxy-3,4,5-trihydroxyoxan-2-yl]oxy}-3-acetamido-5-hydroxy-6-(hydroxymethyl)oxan-2-yl]oxy}-6-{[(2R,3R,5S,6R)-3-acetamido-2,5-dihydroxy-6-(hydroxymethyl)oxan-4-yl]oxy}-4,5-dihydroxyoxane-2-carboxylic acid

>  <JCHEM_LOGP>  (1) 
-8.180567466333333

>  <JCHEM_MDDR_LIKE_RULE>  (1) 
1

>  <JCHEM_NUMBER_OF_RINGS>  (1) 
4

>  <JCHEM_PHYSIOLOGICAL_CHARGE>  (1) 
-2

>  <JCHEM_PKA>  (1) 
3.4811016614643866

>  <JCHEM_PKA_STRONGEST_ACIDIC>  (1) 
2.8739305226331164

>  <JCHEM_PKA_STRONGEST_BASIC>  (1) 
-3.948726333775018

>  <JCHEM_POLAR_SURFACE_AREA>  (1) 
399.7099999999999

>  <JCHEM_REFRACTIVITY>  (1) 
155.10069999999996

>  <JCHEM_ROTATABLE_BOND_COUNT>  (1) 
12

>  <JCHEM_RULE_OF_FIVE>  (1) 
0

>  <JCHEM_TRADITIONAL_IUPAC>  (1) 
(2S,3S,4R,5R,6R)-3-{[(2S,3R,5S,6R)-4-{[(2R,3R,4S,5S,6S)-6-carboxy-3,4,5-trihydroxyoxan-2-yl]oxy}-3-acetamido-5-hydroxy-6-(hydroxymethyl)oxan-2-yl]oxy}-6-{[(2R,3R,5S,6R)-3-acetamido-2,5-dihydroxy-6-(hydroxymethyl)oxan-4-yl]oxy}-4,5-dihydroxyoxane-2-carboxylic acid

>  <JCHEM_VEBER_RULE>  (1) 
0

>  <MOLECULAR_WEIGHT>  (1) 
776.6486

>  <PRODUCTS>  (1) 
Acropass Trouble Cure; Clapiel Hyalon Serum; Deepair Micro Intensive Magic; HYLASE Wound; Hyaluron 3s Serum; Hyaluronic Acid 60mg and Lidocaine 2% PF; Hyaluronic Acid Gel; Hyaluronic Acid Micro; Im Fill; Maxclinic Hyaluronic Meso Change Roller; Morisu; PRO PH Filler; Ramosu Hyaluronic Acid Solution 100; WELLAGE Hyaluronic Acid Micro Needle; Wellage Family Mask Large; Wellage Family Mask Small; XR Cellular Magic; bdr Laser Effect Peptide Complex Face Mask

>  <SALTS>  (1) 
Hyaluronate sodium; Potassium hyaluronate; Sodium hyaluronate

>  <SMILES>  (1) 
CC(=O)N[C@H]1[C@H](O)O[C@H](CO)[C@@H](O)C1O[C@@H]1O[C@@H]([C@@H](O[C@@H]2O[C@H](CO)[C@@H](O)C(O[C@@H]3O[C@@H]([C@@H](O)[C@H](O)[C@H]3O)C(O)=O)[C@H]2NC(C)=O)[C@H](O)[C@H]1O)C(O)=O

>  <SYNONYMS>  (1) 
Hyaluronan; Hyaluronate

$$$$
