
     RDKit          2D

 31 32  0  0  0  0  0  0  0  0999 V2000
    2.0399   -1.8215    0.0000 C   0  0  0  0  0  0  0  0  0  0  0  0
    2.7511    3.1151    0.0000 C   0  0  0  0  0  0  0  0  0  0  0  0
   -0.7570   -0.8092    0.0000 C   0  0  0  0  0  0  0  0  0  0  0  0
    3.3130   -0.4004    0.0000 C   0  0  0  0  0  0  0  0  0  0  0  0
    0.8839   -0.9816    0.0000 C   0  0  0  0  0  0  0  0  0  0  0  0
    3.4186    1.8052    0.0000 C   0  0  0  0  0  0  0  0  0  0  0  0
    1.7043   -1.0679    0.0000 C   0  0  0  0  0  0  0  0  0  0  0  0
    2.7511    2.2901    0.0000 C   0  0  0  0  0  0  0  0  0  0  0  0
    0.5483   -0.2280    0.0000 C   0  0  0  0  0  0  0  0  0  0  0  0
    3.1636    1.0206    0.0000 C   0  0  0  0  0  0  0  0  0  0  0  0
    1.8537    0.3531    0.0000 C   0  0  0  0  0  0  0  0  0  0  0  0
    2.1893   -0.4004    0.0000 N   0  0  0  0  0  0  0  0  0  0  0  0
    1.0332    0.4394    0.0000 N   0  0  0  0  0  0  0  0  0  0  0  0
    2.0837    1.8052    0.0000 N   0  0  0  0  0  0  0  0  0  0  0  0
    2.3386    1.0206    0.0000 N   0  0  0  0  0  0  0  0  0  0  0  0
   -0.2721   -0.1417    0.0000 O   0  0  0  0  0  0  0  0  0  0  0  0
    3.6486    0.3531    0.0000 O   0  0  0  0  0  0  0  0  0  0  0  0
    0.0000    0.0000    0.0000 H   0  0  0  0  0  0  0  0  0  0  0  0
    0.0000    0.0000    0.0000 H   0  0  0  0  0  0  0  0  0  0  0  0
    0.0000    0.0000    0.0000 H   0  0  0  0  0  0  0  0  0  0  0  0
    0.0000    0.0000    0.0000 H   0  0  0  0  0  0  0  0  0  0  0  0
    0.0000    0.0000    0.0000 H   0  0  0  0  0  0  0  0  0  0  0  0
    0.0000    0.0000    0.0000 H   0  0  0  0  0  0  0  0  0  0  0  0
    0.0000    0.0000    0.0000 H   0  0  0  0  0  0  0  0  0  0  0  0
    0.0000    0.0000    0.0000 H   0  0  0  0  0  0  0  0  0  0  0  0
    0.0000    0.0000    0.0000 H   0  0  0  0  0  0  0  0  0  0  0  0
    0.0000    0.0000    0.0000 H   0  0  0  0  0  0  0  0  0  0  0  0
    0.0000    0.0000    0.0000 H   0  0  0  0  0  0  0  0  0  0  0  0
    0.0000    0.0000    0.0000 H   0  0  0  0  0  0  0  0  0  0  0  0
    0.0000    0.0000    0.0000 H   0  0  0  0  0  0  0  0  0  0  0  0
    0.0000    0.0000    0.0000 H   0  0  0  0  0  0  0  0  0  0  0  0
  7  1  1  0
  7  5  2  0
  8  2  1  0
  8  6  1  0
  9  5  1  0
 10  6  2  0
 12  7  1  0
 12 11  2  0
 13  9  2  0
 13 11  1  0
 14  8  2  0
 15 10  1  0
 15 11  1  0
 15 14  1  0
 16  3  1  0
 16  9  1  0
 17  4  1  0
 17 10  1  0
  1 18  1  0
  1 19  1  0
  1 20  1  0
  2 21  1  0
  2 22  1  0
  2 23  1  0
  3 24  1  0
  3 25  1  0
  3 26  1  0
  4 27  1  0
  4 28  1  0
  4 29  1  0
  5 30  1  0
  6 31  1  0
M  END
>  <ALOGPS_LOGP>  (1) 
1.56

>  <ALOGPS_LOGS>  (1) 
-2.32

>  <ALOGPS_SOLUBILITY>  (1) 
1.13e+00 g/l

>  <DATABASE_ID>  (1) 
DB08991

>  <DATABASE_NAME>  (1) 
drugbank

>  <DRUGBANK_ID>  (1) 
DB08991

>  <DRUG_GROUPS>  (1) 
approved

>  <EXACT_MASS>  (1) 
234.111675712

>  <FORMULA>  (1) 
C11H14N4O2

>  <GENERIC_NAME>  (1) 
Epirizole

>  <INCHI_IDENTIFIER>  (1) 
InChI=1S/C11H14N4O2/c1-7-5-9(16-3)13-11(12-7)15-10(17-4)6-8(2)14-15/h5-6H,1-4H3

>  <INCHI_KEY>  (1) 
RHAXSHUQNIEUEY-UHFFFAOYSA-N

>  <INTERNATIONAL_BRANDS>  (1) 
Karmarte; Mebron

>  <JCHEM_ACCEPTOR_COUNT>  (1) 
5

>  <JCHEM_AVERAGE_POLARIZABILITY>  (1) 
24.793522446793975

>  <JCHEM_BIOAVAILABILITY>  (1) 
1

>  <JCHEM_DONOR_COUNT>  (1) 
0

>  <JCHEM_FORMAL_CHARGE>  (1) 
0

>  <JCHEM_GHOSE_FILTER>  (1) 
1

>  <JCHEM_IUPAC>  (1) 
4-methoxy-2-(5-methoxy-3-methyl-1H-pyrazol-1-yl)-6-methylpyrimidine

>  <JCHEM_LOGP>  (1) 
1.445486329666666

>  <JCHEM_MDDR_LIKE_RULE>  (1) 
0

>  <JCHEM_NUMBER_OF_RINGS>  (1) 
2

>  <JCHEM_PHYSIOLOGICAL_CHARGE>  (1) 
0

>  <JCHEM_PKA_STRONGEST_BASIC>  (1) 
2.246323895819559

>  <JCHEM_POLAR_SURFACE_AREA>  (1) 
62.06

>  <JCHEM_REFRACTIVITY>  (1) 
62.7062

>  <JCHEM_ROTATABLE_BOND_COUNT>  (1) 
3

>  <JCHEM_RULE_OF_FIVE>  (1) 
1

>  <JCHEM_TRADITIONAL_IUPAC>  (1) 
mebron

>  <JCHEM_VEBER_RULE>  (1) 
0

>  <MOLECULAR_WEIGHT>  (1) 
234.2545

>  <SALTS>  (1) 
Epirizole hydrochloride

>  <SMILES>  (1) 
COC1=CC(C)=NN1C1=NC(C)=CC(OC)=N1

>  <SYNONYMS>  (1) 
4-methoxy-2-(5-methoxy-3-methylpyrazol-1-yl)-6-methylpyrimidine; Epirizole; Methopyrimazole; Polihexanid

$$$$
