 
     RDKit          2D

 41 43  0  0  0  0  0  0  0  0999 V2000
    7.6725  -10.6425    0.0000 C   0  0  0  0  0  0  0  0  0  0  0  0
    7.6725  -11.4675    0.0000 C   0  0  0  0  0  0  0  0  0  0  0  0
    8.3870  -11.8800    0.0000 C   0  0  0  0  0  0  0  0  0  0  0  0
    9.1015  -11.4675    0.0000 C   0  0  0  0  0  0  0  0  0  0  0  0
    9.1015  -10.6425    0.0000 C   0  0  0  0  0  0  0  0  0  0  0  0
    8.3870  -10.2300    0.0000 N   0  0  0  0  0  0  0  0  0  0  0  0
    9.8269  -10.2235    0.0000 C   0  0  0  0  0  0  0  0  0  0  0  0
   10.5371  -10.6335    0.0000 C   0  0  0  0  0  0  0  0  0  0  0  0
   11.2515  -10.2209    0.0000 C   0  0  0  0  0  0  0  0  0  0  0  0
   11.2515   -9.3959    0.0000 C   0  0  0  0  0  0  0  0  0  0  0  0
   10.5413   -8.9860    0.0000 C   0  0  0  0  0  0  0  0  0  0  0  0
    9.8269   -9.3985    0.0000 C   0  0  0  0  0  0  0  0  0  0  0  0
    9.1082   -8.9836    0.0000 Cl  0  0  0  0  0  0  0  0  0  0  0  0
   11.9773  -10.6398    0.0000 N   0  0  0  0  0  0  0  0  0  0  0  0
   12.6794  -10.2342    0.0000 C   0  0  0  0  0  0  0  0  0  0  0  0
   13.3803  -10.6388    0.0000 C   0  0  0  0  0  0  0  0  0  0  0  0
   12.6793   -9.4051    0.0000 O   0  0  0  0  0  0  0  0  0  0  0  0
   13.3805  -11.4674    0.0000 C   0  0  0  0  0  0  0  0  0  0  0  0
   14.0951  -11.8797    0.0000 C   0  0  0  0  0  0  0  0  0  0  0  0
   14.8095  -11.4670    0.0000 C   0  0  0  0  0  0  0  0  0  0  0  0
   14.8093  -10.6385    0.0000 C   0  0  0  0  0  0  0  0  0  0  0  0
   14.0947  -10.2262    0.0000 C   0  0  0  0  0  0  0  0  0  0  0  0
   14.0946   -9.4051    0.0000 Cl  0  0  0  0  0  0  0  0  0  0  0  0
   15.5237  -11.8792    0.0000 S   0  0  0  0  0  0  0  0  0  0  0  0
   16.2381  -12.2917    0.0000 C   0  0  0  0  0  0  0  0  0  0  0  0
   15.9362  -11.1647    0.0000 O   0  0  0  0  0  0  0  0  0  0  0  0
   15.1112  -12.5937    0.0000 O   0  0  0  0  0  0  0  0  0  0  0  0
    0.0000    0.0000    0.0000 H   0  0  0  0  0  0  0  0  0  0  0  0
    0.0000    0.0000    0.0000 H   0  0  0  0  0  0  0  0  0  0  0  0
    0.0000    0.0000    0.0000 H   0  0  0  0  0  0  0  0  0  0  0  0
    0.0000    0.0000    0.0000 H   0  0  0  0  0  0  0  0  0  0  0  0
    0.0000    0.0000    0.0000 H   0  0  0  0  0  0  0  0  0  0  0  0
    0.0000    0.0000    0.0000 H   0  0  0  0  0  0  0  0  0  0  0  0
    0.0000    0.0000    0.0000 H   0  0  0  0  0  0  0  0  0  0  0  0
    0.0000    0.0000    0.0000 H   0  0  0  0  0  0  0  0  0  0  0  0
    0.0000    0.0000    0.0000 H   0  0  0  0  0  0  0  0  0  0  0  0
    0.0000    0.0000    0.0000 H   0  0  0  0  0  0  0  0  0  0  0  0
    0.0000    0.0000    0.0000 H   0  0  0  0  0  0  0  0  0  0  0  0
    0.0000    0.0000    0.0000 H   0  0  0  0  0  0  0  0  0  0  0  0
    0.0000    0.0000    0.0000 H   0  0  0  0  0  0  0  0  0  0  0  0
    0.0000    0.0000    0.0000 H   0  0  0  0  0  0  0  0  0  0  0  0
  1  2  2  0
  2  3  1  0
  3  4  2  0
  4  5  1  0
  5  6  2  0
  1  6  1  0
  5  7  1  0
  7  8  2  0
  8  9  1  0
  9 10  2  0
 10 11  1  0
 11 12  2  0
  7 12  1  0
 12 13  1  0
  9 14  1  0
 14 15  1  0
 15 16  1  0
 15 17  2  0
 16 18  2  0
 18 19  1  0
 19 20  2  0
 20 21  1  0
 21 22  2  0
 16 22  1  0
 22 23  1  0
 20 24  1  0
 24 25  1  0
 24 26  2  0
 24 27  2  0
  1 28  1  0
  2 29  1  0
  3 30  1  0
  4 31  1  0
  8 32  1  0
 10 33  1  0
 11 34  1  0
 14 35  1  0
 18 36  1  0
 19 37  1  0
 21 38  1  0
 25 39  1  0
 25 40  1  0
 25 41  1  0
M  END
>  <ALOGPS_LOGP>  (1) 
4.22

>  <ALOGPS_LOGS>  (1) 
-5.39

>  <ALOGPS_SOLUBILITY>  (1) 
1.73e-03 g/l

>  <DATABASE_ID>  (1) 
DB08828

>  <DATABASE_NAME>  (1) 
drugbank

>  <DRUGBANK_ID>  (1) 
DB08828

>  <DRUG_GROUPS>  (1) 
approved

>  <EXACT_MASS>  (1) 
420.010218428

>  <FORMULA>  (1) 
C19H14Cl2N2O3S

>  <GENERIC_NAME>  (1) 
Vismodegib

>  <INCHI_IDENTIFIER>  (1) 
InChI=1S/C19H14Cl2N2O3S/c1-27(25,26)13-6-7-14(17(21)11-13)19(24)23-12-5-8-16(20)15(10-12)18-4-2-3-9-22-18/h2-11H,1H3,(H,23,24)

>  <INCHI_KEY>  (1) 
BPQMGSKTAYIVFO-UHFFFAOYSA-N

>  <JCHEM_ACCEPTOR_COUNT>  (1) 
4

>  <JCHEM_AVERAGE_POLARIZABILITY>  (1) 
39.49217152940425

>  <JCHEM_BIOAVAILABILITY>  (1) 
1

>  <JCHEM_DONOR_COUNT>  (1) 
1

>  <JCHEM_FORMAL_CHARGE>  (1) 
0

>  <JCHEM_GHOSE_FILTER>  (1) 
1

>  <JCHEM_IUPAC>  (1) 
2-chloro-N-[4-chloro-3-(pyridin-2-yl)phenyl]-4-methanesulfonylbenzamide

>  <JCHEM_LOGP>  (1) 
3.9289317773333328

>  <JCHEM_MDDR_LIKE_RULE>  (1) 
0

>  <JCHEM_NUMBER_OF_RINGS>  (1) 
3

>  <JCHEM_PHYSIOLOGICAL_CHARGE>  (1) 
0

>  <JCHEM_PKA>  (1) 
19.697470171450448

>  <JCHEM_PKA_STRONGEST_ACIDIC>  (1) 
10.269496925484273

>  <JCHEM_PKA_STRONGEST_BASIC>  (1) 
3.703528641105209

>  <JCHEM_POLAR_SURFACE_AREA>  (1) 
76.13

>  <JCHEM_REFRACTIVITY>  (1) 
107.81199999999998

>  <JCHEM_ROTATABLE_BOND_COUNT>  (1) 
4

>  <JCHEM_RULE_OF_FIVE>  (1) 
1

>  <JCHEM_TRADITIONAL_IUPAC>  (1) 
vismodegib

>  <JCHEM_VEBER_RULE>  (1) 
0

>  <MOLECULAR_WEIGHT>  (1) 
421.297

>  <PRODUCTS>  (1) 
Erivedge

>  <SMILES>  (1) 
CS(=O)(=O)C1=CC(Cl)=C(C=C1)C(=O)NC1=CC=C(Cl)C(=C1)C1=CC=CC=N1

$$$$
