
     RDKit          2D

  3  2  0  0  0  0  0  0  0  0999 V2000
    0.0000    0.2062    0.0000 Ra  0  0  0  0  0  0  0  0  0  0  0  0
   -0.7145   -0.2062    0.0000 Cl  0  0  0  0  0  0  0  0  0  0  0  0
    0.7145   -0.2062    0.0000 Cl  0  0  0  0  0  0  0  0  0  0  0  0
  1  2  1  0
  1  3  1  0
M  ISO  1   1 223
M  END
>  <ALOGPS_LOGP>  (1) 
0.37

>  <ALOGPS_LOGS>  (1) 
-0.60

>  <ALOGPS_SOLUBILITY>  (1) 
7.47e+01 g/l

>  <DATABASE_ID>  (1) 
DB08913

>  <DATABASE_NAME>  (1) 
drugbank

>  <DRUGBANK_ID>  (1) 
DB08913

>  <DRUG_GROUPS>  (1) 
approved; investigational

>  <EXACT_MASS>  (1) 
292.956202554

>  <FORMULA>  (1) 
Cl2Ra

>  <GENERIC_NAME>  (1) 
Radium Ra 223 Dichloride

>  <INCHI_IDENTIFIER>  (1) 
InChI=1S/2ClH.Ra/h2*1H;/q;;+2/p-2/i;;1-3

>  <INCHI_KEY>  (1) 
RWRDJVNMSZYMDV-SIUYXFDKSA-L

>  <INTERNATIONAL_BRANDS>  (1) 
Alpharadin

>  <JCHEM_ACCEPTOR_COUNT>  (1) 
0

>  <JCHEM_ATOM_COUNT>  (1) 
3

>  <JCHEM_AVERAGE_POLARIZABILITY>  (1) 
7.263536669381411

>  <JCHEM_BIOAVAILABILITY>  (1) 
1

>  <JCHEM_DONOR_COUNT>  (1) 
0

>  <JCHEM_FORMAL_CHARGE>  (1) 
0

>  <JCHEM_GHOSE_FILTER>  (1) 
0

>  <JCHEM_IUPAC>  (1) 
dichloro(223Ra)radium

>  <JCHEM_LOGP>  (1) 
1.2689999999999997

>  <JCHEM_MDDR_LIKE_RULE>  (1) 
0

>  <JCHEM_NUMBER_OF_RINGS>  (1) 
0

>  <JCHEM_PHYSIOLOGICAL_CHARGE>  (1) 
0

>  <JCHEM_POLAR_SURFACE_AREA>  (1) 
0.0

>  <JCHEM_REFRACTIVITY>  (1) 
12.2726

>  <JCHEM_ROTATABLE_BOND_COUNT>  (1) 
0

>  <JCHEM_RULE_OF_FIVE>  (1) 
1

>  <JCHEM_TRADITIONAL_IUPAC>  (1) 
dichloro(223Ra)radium

>  <JCHEM_VEBER_RULE>  (1) 
1

>  <MOLECULAR_WEIGHT>  (1) 
293.924

>  <PRODUCTS>  (1) 
Xofigo

>  <SECONDARY_ACCESSION_NUMBERS>  (1) 
DB05677; DB09566

>  <SMILES>  (1) 
Cl[223Ra]Cl

>  <SYNONYMS>  (1) 
RADIUM CHLORIDE RA-223; Radium Ra-223 dichloride; Radium-223 chloride; Radium-223 dichloride

$$$$
