
     RDKit          2D

  2  0  0  0  0  0  0  0  0  0999 V2000
    0.4937    0.0083    0.0000 Cl  0  0  0  0  0  0  0  0  0  0  0  0
   -0.4937   -0.0083    0.0000 Rb  0  0  0  0  0  0  0  0  0  0  0  0
M  CHG  2   1  -1   2   1
M  ISO  1   2  82
M  END
>  <ALOGPS_LOGP>  (1) 
-0.28

>  <ALOGPS_LOGS>  (1) 
-0.05

>  <ALOGPS_SOLUBILITY>  (1) 
1.09e+02 g/l

>  <DATABASE_ID>  (1) 
DB09479

>  <DATABASE_NAME>  (1) 
drugbank

>  <DRUGBANK_ID>  (1) 
DB09479

>  <DRUG_GROUPS>  (1) 
approved

>  <EXACT_MASS>  (1) 
116.8870604

>  <FORMULA>  (1) 
ClRb

>  <GENERIC_NAME>  (1) 
Rubidium chloride Rb-82

>  <INCHI_IDENTIFIER>  (1) 
InChI=1S/ClH.Rb/h1H;/q;+1/p-1/i;1-3

>  <INCHI_KEY>  (1) 
FGDZQCVHDSGLHJ-RYDPDVNUSA-M

>  <JCHEM_ACCEPTOR_COUNT>  (1) 
0

>  <JCHEM_ATOM_COUNT>  (1) 
2

>  <JCHEM_AVERAGE_POLARIZABILITY>  (1) 
2.3881688999999993

>  <JCHEM_BIOAVAILABILITY>  (1) 
1

>  <JCHEM_DONOR_COUNT>  (1) 
0

>  <JCHEM_FORMAL_CHARGE>  (1) 
0

>  <JCHEM_GHOSE_FILTER>  (1) 
0

>  <JCHEM_IUPAC>  (1) 
(82Rb)rubidium(1+) ion chloride

>  <JCHEM_LOGP>  (1) 
0.6123387216666667

>  <JCHEM_MDDR_LIKE_RULE>  (1) 
0

>  <JCHEM_NUMBER_OF_RINGS>  (1) 
0

>  <JCHEM_PHYSIOLOGICAL_CHARGE>  (1) 
-1

>  <JCHEM_PKA_STRONGEST_ACIDIC>  (1) 
-7.000000000000001

>  <JCHEM_POLAR_SURFACE_AREA>  (1) 
0.0

>  <JCHEM_REFRACTIVITY>  (1) 
5.6156

>  <JCHEM_ROTATABLE_BOND_COUNT>  (1) 
0

>  <JCHEM_RULE_OF_FIVE>  (1) 
1

>  <JCHEM_TRADITIONAL_IUPAC>  (1) 
(82Rb)rubidium(1+) ion chloride

>  <JCHEM_VEBER_RULE>  (1) 
1

>  <MOLECULAR_WEIGHT>  (1) 
117.37

>  <PRODUCTS>  (1) 
CardioGen-82; Ruby-fill

>  <SMILES>  (1) 
[Cl-].[82Rb+]

>  <SYNONYMS>  (1) 
Rubidium Rb-82 chloride

$$$$
