
     RDKit          2D

 55 59  0  0  1  0  0  0  0  0999 V2000
   -3.3206   -1.3919    0.0000 C   0  0  0  0  0  0  0  0  0  0  0  0
   -2.0806   -0.3579    0.0000 C   0  0  0  0  0  0  0  0  0  0  0  0
   -4.1256   -0.2112    0.0000 C   0  0  0  0  0  0  0  0  0  0  0  0
    3.9933    0.8250    0.0000 C   0  0  0  0  0  0  0  0  0  0  0  0
   -4.1872    0.6114    0.0000 C   0  0  0  0  0  0  0  0  0  0  0  0
    3.2789    1.2375    0.0000 C   0  0  0  0  0  0  0  0  0  0  0  0
   -0.6923   -0.5143    0.0000 C   0  0  0  0  0  0  0  0  0  0  0  0
   -3.2507    3.1956    0.0000 C   0  0  0  0  0  0  0  0  0  0  0  0
   -4.0734    3.1340    0.0000 C   0  0  0  0  0  0  0  0  0  0  0  0
    0.1119   -0.3307    0.0000 C   0  0  0  0  0  0  0  0  0  0  0  0
    0.1119    1.1557    0.0000 C   0  0  0  0  0  0  0  0  0  0  0  0
   -0.6923    1.3393    0.0000 C   0  0  0  0  0  0  0  0  0  0  0  0
   -2.7006   -0.1044    0.0000 C   0  0  0  0  0  0  0  0  0  0  0  0
    3.2789   -0.4125    0.0000 C   0  0  0  0  0  0  0  0  0  0  0  0
   -3.3823   -0.5692    0.0000 C   0  0  0  0  0  0  0  0  0  0  0  0
   -1.3373    0.0000    0.0000 C   0  0  0  0  0  0  0  0  0  0  0  0
    3.9933    0.0000    0.0000 C   0  0  0  0  0  0  0  0  0  0  0  0
   -2.7623    0.7182    0.0000 C   0  0  0  0  0  0  0  0  0  0  0  0
    2.5644    0.0000    0.0000 C   0  0  0  0  0  0  0  0  0  0  0  0
   -3.5056    1.0761    0.0000 C   0  0  0  0  0  0  0  0  0  0  0  0
    2.5644    0.8250    0.0000 C   0  0  0  0  0  0  0  0  0  0  0  0
   -2.0806    1.1829    0.0000 C   0  0  0  0  0  0  0  0  0  0  0  0
    1.2949    0.4125    0.0000 C   0  0  0  0  0  0  0  0  0  0  0  0
    4.7078   -0.4125    0.0000 Cl  0  0  0  0  0  0  0  0  0  0  0  0
   -2.9379    2.4323    0.0000 N   0  0  0  0  0  0  0  0  0  0  0  0
   -4.2690    2.3325    0.0000 N   0  0  0  0  0  0  0  0  0  0  0  0
    1.7798   -0.2549    0.0000 N   0  0  0  0  0  0  0  0  0  0  0  0
    0.4699    0.4125    0.0000 N   0  0  0  0  0  0  0  0  0  0  0  0
   -1.3373    0.8250    0.0000 N   0  0  0  0  0  0  0  0  0  0  0  0
   -3.5672    1.8988    0.0000 N   0  0  0  0  0  0  0  0  0  0  0  0
   -2.1423    2.0056    0.0000 O   0  0  0  0  0  0  0  0  0  0  0  0
    1.7798    1.0799    0.0000 O   0  0  0  0  0  0  0  0  0  0  0  0
    0.0000    0.0000    0.0000 H   0  0  0  0  0  0  0  0  0  0  0  0
    0.0000    0.0000    0.0000 H   0  0  0  0  0  0  0  0  0  0  0  0
    0.0000    0.0000    0.0000 H   0  0  0  0  0  0  0  0  0  0  0  0
    0.0000    0.0000    0.0000 H   0  0  0  0  0  0  0  0  0  0  0  0
    0.0000    0.0000    0.0000 H   0  0  0  0  0  0  0  0  0  0  0  0
    0.0000    0.0000    0.0000 H   0  0  0  0  0  0  0  0  0  0  0  0
    0.0000    0.0000    0.0000 H   0  0  0  0  0  0  0  0  0  0  0  0
    0.0000    0.0000    0.0000 H   0  0  0  0  0  0  0  0  0  0  0  0
    0.0000    0.0000    0.0000 H   0  0  0  0  0  0  0  0  0  0  0  0
    0.0000    0.0000    0.0000 H   0  0  0  0  0  0  0  0  0  0  0  0
    0.0000    0.0000    0.0000 H   0  0  0  0  0  0  0  0  0  0  0  0
    0.0000    0.0000    0.0000 H   0  0  0  0  0  0  0  0  0  0  0  0
    0.0000    0.0000    0.0000 H   0  0  0  0  0  0  0  0  0  0  0  0
    0.0000    0.0000    0.0000 H   0  0  0  0  0  0  0  0  0  0  0  0
    0.0000    0.0000    0.0000 H   0  0  0  0  0  0  0  0  0  0  0  0
    0.0000    0.0000    0.0000 H   0  0  0  0  0  0  0  0  0  0  0  0
    0.0000    0.0000    0.0000 H   0  0  0  0  0  0  0  0  0  0  0  0
    0.0000    0.0000    0.0000 H   0  0  0  0  0  0  0  0  0  0  0  0
    0.0000    0.0000    0.0000 H   0  0  0  0  0  0  0  0  0  0  0  0
    0.0000    0.0000    0.0000 H   0  0  0  0  0  0  0  0  0  0  0  0
    0.0000    0.0000    0.0000 H   0  0  0  0  0  0  0  0  0  0  0  0
    0.0000    0.0000    0.0000 H   0  0  0  0  0  0  0  0  0  0  0  0
    0.0000    0.0000    0.0000 H   0  0  0  0  0  0  0  0  0  0  0  0
  5  3  2  0
  6  4  2  0
  9  8  1  0
 10  7  1  0
 12 11  1  0
 15  1  1  0
 15  3  1  0
 15 13  2  0
 16  2  1  6
 16  7  1  0
 17  4  1  0
 17 14  2  0
 18 13  1  0
 19 14  1  0
 20  5  1  0
 20 18  2  0
 21  6  1  0
 21 19  2  0
 22 18  1  0
 24 17  1  0
 25  8  2  0
 26  9  2  0
 27 19  1  0
 27 23  2  0
 28 10  1  0
 28 11  1  0
 28 23  1  0
 29 12  1  0
 29 16  1  0
 29 22  1  0
 30 20  1  0
 30 25  1  0
 30 26  1  0
 31 22  2  0
 32 21  1  0
 32 23  1  0
  1 33  1  0
  1 34  1  0
  1 35  1  0
  2 36  1  0
  2 37  1  0
  2 38  1  0
  3 39  1  0
  4 40  1  0
  5 41  1  0
  6 42  1  0
  7 43  1  0
  7 44  1  0
  8 45  1  0
  9 46  1  0
 10 47  1  0
 10 48  1  0
 11 49  1  0
 11 50  1  0
 12 51  1  0
 12 52  1  0
 13 53  1  0
 14 54  1  0
 16 55  1  0
M  END
>  <ALOGPS_LOGP>  (1) 
3.86

>  <ALOGPS_LOGS>  (1) 
-3.58

>  <ALOGPS_SOLUBILITY>  (1) 
1.17e-01 g/l

>  <DATABASE_ID>  (1) 
DB09034

>  <DATABASE_NAME>  (1) 
drugbank

>  <DRUGBANK_ID>  (1) 
DB09034

>  <DRUG_GROUPS>  (1) 
approved

>  <EXACT_MASS>  (1) 
450.1571017

>  <FORMULA>  (1) 
C23H23ClN6O2

>  <GENERIC_NAME>  (1) 
Suvorexant

>  <INCHI_IDENTIFIER>  (1) 
InChI=1S/C23H23ClN6O2/c1-15-3-5-20(30-25-8-9-26-30)18(13-15)22(31)29-12-11-28(10-7-16(29)2)23-27-19-14-17(24)4-6-21(19)32-23/h3-6,8-9,13-14,16H,7,10-12H2,1-2H3/t16-/m1/s1

>  <INCHI_KEY>  (1) 
JYTNQNCOQXFQPK-MRXNPFEDSA-N

>  <JCHEM_ACCEPTOR_COUNT>  (1) 
5

>  <JCHEM_ATOM_COUNT>  (1) 
55

>  <JCHEM_AVERAGE_POLARIZABILITY>  (1) 
46.67910435232814

>  <JCHEM_BIOAVAILABILITY>  (1) 
1

>  <JCHEM_DONOR_COUNT>  (1) 
0

>  <JCHEM_FORMAL_CHARGE>  (1) 
0

>  <JCHEM_GHOSE_FILTER>  (1) 
0

>  <JCHEM_IUPAC>  (1) 
5-chloro-2-[(5R)-5-methyl-4-[5-methyl-2-(2H-1,2,3-triazol-2-yl)benzoyl]-1,4-diazepan-1-yl]-1,3-benzoxazole

>  <JCHEM_LOGP>  (1) 
4.039400000000001

>  <JCHEM_MDDR_LIKE_RULE>  (1) 
0

>  <JCHEM_NUMBER_OF_RINGS>  (1) 
5

>  <JCHEM_PHYSIOLOGICAL_CHARGE>  (1) 
0

>  <JCHEM_PKA_STRONGEST_BASIC>  (1) 
0.25272780274404594

>  <JCHEM_POLAR_SURFACE_AREA>  (1) 
80.29

>  <JCHEM_REFRACTIVITY>  (1) 
134.3566

>  <JCHEM_ROTATABLE_BOND_COUNT>  (1) 
3

>  <JCHEM_RULE_OF_FIVE>  (1) 
1

>  <JCHEM_TRADITIONAL_IUPAC>  (1) 
5-chloro-2-[(5R)-5-methyl-4-[5-methyl-2-(1,2,3-triazol-2-yl)benzoyl]-1,4-diazepan-1-yl]-1,3-benzoxazole

>  <JCHEM_VEBER_RULE>  (1) 
0

>  <MOLECULAR_WEIGHT>  (1) 
450.93

>  <PRODUCTS>  (1) 
Belsomra

>  <SMILES>  (1) 
[H][C@@]1(C)CCN(CCN1C(=O)C1=C(C=CC(C)=C1)N1N=CC=N1)C1=NC2=C(O1)C=CC(Cl)=C2

$$$$
