
     RDKit          2D

  4  3  0  0  0  0  0  0  0  0999 V2000
    0.0000    0.0000    0.0000 N   0  0  0  0  0  0  0  0  0  0  0  0
    0.0000    0.0000    0.0000 H   0  0  0  0  0  0  0  0  0  0  0  0
    0.0000    0.0000    0.0000 H   0  0  0  0  0  0  0  0  0  0  0  0
    0.0000    0.0000    0.0000 H   0  0  0  0  0  0  0  0  0  0  0  0
  1  2  1  0
  1  3  1  0
  1  4  1  0
M  ISO  1   1  13
M  END
>  <DATABASE_ID>  (1) 
DB09326

>  <DATABASE_NAME>  (1) 
drugbank

>  <DRUGBANK_ID>  (1) 
DB09326

>  <DRUG_GROUPS>  (1) 
approved

>  <EXACT_MASS>  (1) 
16.029213681

>  <FORMULA>  (1) 
H3N

>  <GENERIC_NAME>  (1) 
Ammonia N-13

>  <INCHI_IDENTIFIER>  (1) 
InChI=1S/H3N/h1H3/i1-1

>  <INCHI_KEY>  (1) 
QGZKDVFQNNGYKY-BJUDXGSMSA-N

>  <JCHEM_ACCEPTOR_COUNT>  (1) 
1

>  <JCHEM_ATOM_COUNT>  (1) 
4

>  <JCHEM_AVERAGE_POLARIZABILITY>  (1) 
1.9904529105652708

>  <JCHEM_BIOAVAILABILITY>  (1) 
1

>  <JCHEM_DONOR_COUNT>  (1) 
1

>  <JCHEM_FORMAL_CHARGE>  (1) 
0

>  <JCHEM_GHOSE_FILTER>  (1) 
0

>  <JCHEM_IUPAC>  (1) 
(¹³N)ammonia

>  <JCHEM_LOGP>  (1) 
-0.9779999999999999

>  <JCHEM_MDDR_LIKE_RULE>  (1) 
0

>  <JCHEM_NUMBER_OF_RINGS>  (1) 
0

>  <JCHEM_PHYSIOLOGICAL_CHARGE>  (1) 
1

>  <JCHEM_PKA_STRONGEST_BASIC>  (1) 
8.861981369487705

>  <JCHEM_POLAR_SURFACE_AREA>  (1) 
13.59

>  <JCHEM_REFRACTIVITY>  (1) 
15.5149

>  <JCHEM_ROTATABLE_BOND_COUNT>  (1) 
0

>  <JCHEM_RULE_OF_FIVE>  (1) 
1

>  <JCHEM_TRADITIONAL_IUPAC>  (1) 
(¹³N)ammonia

>  <JCHEM_VEBER_RULE>  (1) 
1

>  <MOLECULAR_WEIGHT>  (1) 
16.03

>  <PRODUCTS>  (1) 
Ammonia N 13; Ammonia N 13 N 13; Ammonia N-13; AmmoniaN 13 N 13

>  <SMILES>  (1) 
[13NH3]

>  <SYNONYMS>  (1) 
(13N)Ammonia; Ammonia N 13

$$$$
