
     RDKit          2D

 59 60  0  0  0  0  0  0  0  0999 V2000
   -2.8234   -1.9856    0.0000 O   0  0  0  0  0  0  0  0  0  0  0  0
   -2.1175   -3.2273    0.0000 O   0  0  0  0  0  0  0  0  0  0  0  0
    1.4201   -1.1438    0.0000 O   0  0  0  0  0  0  0  0  0  0  0  0
    3.5462   -3.2273    0.0000 O   0  0  0  0  0  0  0  0  0  0  0  0
    4.2520   -1.9856    0.0000 O   0  0  0  0  0  0  0  0  0  0  0  0
    0.7143   -2.3939    0.0000 N   0  0  0  0  0  0  0  0  0  0  0  0
    0.0085   -1.9856    0.0000 C   0  0  0  0  0  0  0  0  0  0  0  0
   -1.4031   -1.9856    0.0000 C   0  0  0  0  0  0  0  0  0  0  0  0
   -0.6973   -2.3939    0.0000 C   0  0  0  0  0  0  0  0  0  0  0  0
    0.4252   -1.2628    0.0000 C   0  0  0  0  0  0  0  0  0  0  0  0
    0.2125   -0.4549    0.0000 C   0  0  0  0  0  0  0  0  0  0  0  0
   -2.1175   -2.3939    0.0000 C   0  0  0  0  0  0  0  0  0  0  0  0
   -0.5527    0.9822    0.0000 C   0  0  0  0  0  0  0  0  0  0  0  0
    1.4201   -1.9856    0.0000 C   0  0  0  0  0  0  0  0  0  0  0  0
    0.6633    0.2508    0.0000 C   0  0  0  0  0  0  0  0  0  0  0  0
   -0.5783   -0.4209    0.0000 C   0  0  0  0  0  0  0  0  0  0  0  0
   -1.8198   -1.2628    0.0000 C   0  0  0  0  0  0  0  0  0  0  0  0
   -0.9354    1.7475    0.0000 C   0  0  0  0  0  0  0  0  0  0  0  0
    0.2296    0.9907    0.0000 C   0  0  0  0  0  0  0  0  0  0  0  0
   -1.0034    0.3188    0.0000 C   0  0  0  0  0  0  0  0  0  0  0  0
    2.1260   -2.3939    0.0000 C   0  0  0  0  0  0  0  0  0  0  0  0
   -0.4932    2.4449    0.0000 C   0  0  0  0  0  0  0  0  0  0  0  0
   -1.7688    1.7816    0.0000 C   0  0  0  0  0  0  0  0  0  0  0  0
   -3.5291   -2.3939    0.0000 C   0  0  0  0  0  0  0  0  0  0  0  0
   -0.8844    3.2273    0.0000 C   0  0  0  0  0  0  0  0  0  0  0  0
   -2.1175    2.5214    0.0000 C   0  0  0  0  0  0  0  0  0  0  0  0
    2.8403   -1.9856    0.0000 C   0  0  0  0  0  0  0  0  0  0  0  0
   -1.7093    3.2188    0.0000 C   0  0  0  0  0  0  0  0  0  0  0  0
    3.5462   -2.3939    0.0000 C   0  0  0  0  0  0  0  0  0  0  0  0
   -4.2520   -1.9771    0.0000 C   0  0  0  0  0  0  0  0  0  0  0  0
    0.0000    0.0000    0.0000 H   0  0  0  0  0  0  0  0  0  0  0  0
    0.0000    0.0000    0.0000 H   0  0  0  0  0  0  0  0  0  0  0  0
    0.0000    0.0000    0.0000 H   0  0  0  0  0  0  0  0  0  0  0  0
    0.0000    0.0000    0.0000 H   0  0  0  0  0  0  0  0  0  0  0  0
    0.0000    0.0000    0.0000 H   0  0  0  0  0  0  0  0  0  0  0  0
    0.0000    0.0000    0.0000 H   0  0  0  0  0  0  0  0  0  0  0  0
    0.0000    0.0000    0.0000 H   0  0  0  0  0  0  0  0  0  0  0  0
    0.0000    0.0000    0.0000 H   0  0  0  0  0  0  0  0  0  0  0  0
    0.0000    0.0000    0.0000 H   0  0  0  0  0  0  0  0  0  0  0  0
    0.0000    0.0000    0.0000 H   0  0  0  0  0  0  0  0  0  0  0  0
    0.0000    0.0000    0.0000 H   0  0  0  0  0  0  0  0  0  0  0  0
    0.0000    0.0000    0.0000 H   0  0  0  0  0  0  0  0  0  0  0  0
    0.0000    0.0000    0.0000 H   0  0  0  0  0  0  0  0  0  0  0  0
    0.0000    0.0000    0.0000 H   0  0  0  0  0  0  0  0  0  0  0  0
    0.0000    0.0000    0.0000 H   0  0  0  0  0  0  0  0  0  0  0  0
    0.0000    0.0000    0.0000 H   0  0  0  0  0  0  0  0  0  0  0  0
    0.0000    0.0000    0.0000 H   0  0  0  0  0  0  0  0  0  0  0  0
    0.0000    0.0000    0.0000 H   0  0  0  0  0  0  0  0  0  0  0  0
    0.0000    0.0000    0.0000 H   0  0  0  0  0  0  0  0  0  0  0  0
    0.0000    0.0000    0.0000 H   0  0  0  0  0  0  0  0  0  0  0  0
    0.0000    0.0000    0.0000 H   0  0  0  0  0  0  0  0  0  0  0  0
    0.0000    0.0000    0.0000 H   0  0  0  0  0  0  0  0  0  0  0  0
    0.0000    0.0000    0.0000 H   0  0  0  0  0  0  0  0  0  0  0  0
    0.0000    0.0000    0.0000 H   0  0  0  0  0  0  0  0  0  0  0  0
    0.0000    0.0000    0.0000 H   0  0  0  0  0  0  0  0  0  0  0  0
    0.0000    0.0000    0.0000 H   0  0  0  0  0  0  0  0  0  0  0  0
    0.0000    0.0000    0.0000 H   0  0  0  0  0  0  0  0  0  0  0  0
    0.0000    0.0000    0.0000 H   0  0  0  0  0  0  0  0  0  0  0  0
    0.0000    0.0000    0.0000 H   0  0  0  0  0  0  0  0  0  0  0  0
  1 12  1  0
  1 24  1  0
  2 12  2  0
  3 14  2  0
  4 29  2  0
  5 29  1  0
  7  6  1  6
  6 14  1  0
  7  9  1  0
  7 10  1  0
  8  9  1  6
  8 12  1  0
  8 17  1  0
 10 11  1  0
 11 15  2  0
 11 16  1  0
 13 18  1  0
 13 19  2  0
 13 20  1  0
 14 21  1  0
 15 19  1  0
 16 20  2  0
 18 22  2  0
 18 23  1  0
 21 27  1  0
 22 25  1  0
 23 26  2  0
 24 30  1  0
 25 28  2  0
 26 28  1  0
 27 29  1  0
  5 31  1  0
  6 32  1  0
  7 33  1  0
  8 34  1  0
  9 35  1  0
  9 36  1  0
 10 37  1  0
 10 38  1  0
 15 39  1  0
 16 40  1  0
 17 41  1  0
 17 42  1  0
 17 43  1  0
 19 44  1  0
 20 45  1  0
 21 46  1  0
 21 47  1  0
 22 48  1  0
 23 49  1  0
 24 50  1  0
 24 51  1  0
 25 52  1  0
 26 53  1  0
 27 54  1  0
 27 55  1  0
 28 56  1  0
 30 57  1  0
 30 58  1  0
 30 59  1  0
M  END
>  <ALOGPS_LOGP>  (1) 
3.90

>  <ALOGPS_LOGS>  (1) 
-5.64

>  <ALOGPS_SOLUBILITY>  (1) 
9.42e-04 g/l

>  <DATABASE_ID>  (1) 
DB09292

>  <DATABASE_NAME>  (1) 
drugbank

>  <DRUGBANK_ID>  (1) 
DB09292

>  <DRUG_GROUPS>  (1) 
approved

>  <EXACT_MASS>  (1) 
411.204573038

>  <FORMULA>  (1) 
C24H29NO5

>  <GENERIC_NAME>  (1) 
Sacubitril

>  <INCHI_IDENTIFIER>  (1) 
InChI=1S/C24H29NO5/c1-3-30-24(29)17(2)15-21(25-22(26)13-14-23(27)28)16-18-9-11-20(12-10-18)19-7-5-4-6-8-19/h4-12,17,21H,3,13-16H2,1-2H3,(H,25,26)(H,27,28)/t17-,21+/m1/s1

>  <INCHI_KEY>  (1) 
PYNXFZCZUAOOQC-UTKZUKDTSA-N

>  <JCHEM_ACCEPTOR_COUNT>  (1) 
4

>  <JCHEM_ATOM_COUNT>  (1) 
59

>  <JCHEM_AVERAGE_POLARIZABILITY>  (1) 
45.41337885233891

>  <JCHEM_BIOAVAILABILITY>  (1) 
1

>  <JCHEM_DONOR_COUNT>  (1) 
2

>  <JCHEM_FORMAL_CHARGE>  (1) 
0

>  <JCHEM_GHOSE_FILTER>  (1) 
1

>  <JCHEM_IUPAC>  (1) 
3-{[(2S,4R)-1-{[1,1'-biphenyl]-4-yl}-5-ethoxy-4-methyl-5-oxopentan-2-yl]carbamoyl}propanoic acid

>  <JCHEM_LOGP>  (1) 
3.787722777666666

>  <JCHEM_MDDR_LIKE_RULE>  (1) 
0

>  <JCHEM_NUMBER_OF_RINGS>  (1) 
2

>  <JCHEM_PHYSIOLOGICAL_CHARGE>  (1) 
-1

>  <JCHEM_PKA>  (1) 
15.763375845183944

>  <JCHEM_PKA_STRONGEST_ACIDIC>  (1) 
4.17512475630217

>  <JCHEM_PKA_STRONGEST_BASIC>  (1) 
-1.5518480702566229

>  <JCHEM_POLAR_SURFACE_AREA>  (1) 
92.7

>  <JCHEM_REFRACTIVITY>  (1) 
114.06110000000001

>  <JCHEM_ROTATABLE_BOND_COUNT>  (1) 
12

>  <JCHEM_RULE_OF_FIVE>  (1) 
1

>  <JCHEM_TRADITIONAL_IUPAC>  (1) 
3-{[(2S,4R)-1-{[1,1'-biphenyl]-4-yl}-5-ethoxy-4-methyl-5-oxopentan-2-yl]carbamoyl}propanoic acid

>  <JCHEM_VEBER_RULE>  (1) 
0

>  <MOLECULAR_WEIGHT>  (1) 
411.498

>  <PRODUCTS>  (1) 
Entresto

>  <SMILES>  (1) 
[H][C@@](CC1=CC=C(C=C1)C1=CC=CC=C1)(C[C@@]([H])(C)C(=O)OCC)NC(=O)CCC(O)=O

$$$$
