
     RDKit          2D

 52 54  0  0  0  0  0  0  0  0999 V2000
    0.0354    0.2268    0.0000 In  0  0  0  0  0  0  0  0  0  0  0  0
   -0.8735   -0.7630    0.0000 O   0  0  0  0  0  0  0  0  0  0  0  0
    0.1591    1.2580    0.0000 O   0  0  0  0  0  0  0  0  0  0  0  0
    1.5187   -0.4331    0.0000 O   0  0  0  0  0  0  0  0  0  0  0  0
   -0.8736    0.8868    0.0000 N   0  0  0  0  0  0  0  0  0  0  0  0
    1.5880    0.4331    0.0000 N   0  0  0  0  0  0  0  0  0  0  0  0
    0.0898   -1.2580    0.0000 N   0  0  0  0  0  0  0  0  0  0  0  0
   -1.5880    0.4743    0.0000 C   0  0  0  0  0  0  0  0  0  0  0  0
    1.5880    1.2580    0.0000 C   0  0  0  0  0  0  0  0  0  0  0  0
    0.8043   -1.6705    0.0000 C   0  0  0  0  0  0  0  0  0  0  0  0
   -2.3025    0.8868    0.0000 C   0  0  0  0  0  0  0  0  0  0  0  0
    2.3025    1.6705    0.0000 C   0  0  0  0  0  0  0  0  0  0  0  0
    0.8043   -2.4955    0.0000 C   0  0  0  0  0  0  0  0  0  0  0  0
   -1.5880   -0.3506    0.0000 C   0  0  0  0  0  0  0  0  0  0  0  0
    0.8736    1.6705    0.0000 C   0  0  0  0  0  0  0  0  0  0  0  0
    1.5187   -1.2580    0.0000 C   0  0  0  0  0  0  0  0  0  0  0  0
   -3.0169    0.4743    0.0000 C   0  0  0  0  0  0  0  0  0  0  0  0
    2.3025    2.4955    0.0000 C   0  0  0  0  0  0  0  0  0  0  0  0
    1.5187   -2.9080    0.0000 C   0  0  0  0  0  0  0  0  0  0  0  0
   -2.3025    1.7118    0.0000 C   0  0  0  0  0  0  0  0  0  0  0  0
    3.0169    1.2580    0.0000 C   0  0  0  0  0  0  0  0  0  0  0  0
    0.0898   -2.9080    0.0000 C   0  0  0  0  0  0  0  0  0  0  0  0
   -2.3025   -0.7630    0.0000 C   0  0  0  0  0  0  0  0  0  0  0  0
    0.8736    2.4955    0.0000 C   0  0  0  0  0  0  0  0  0  0  0  0
    2.2332   -1.6705    0.0000 C   0  0  0  0  0  0  0  0  0  0  0  0
   -3.0169   -0.3506    0.0000 C   0  0  0  0  0  0  0  0  0  0  0  0
    1.5880    2.9080    0.0000 C   0  0  0  0  0  0  0  0  0  0  0  0
    2.2332   -2.4955    0.0000 C   0  0  0  0  0  0  0  0  0  0  0  0
   -0.8736    1.7118    0.0000 C   0  0  0  0  0  0  0  0  0  0  0  0
    2.3025    0.0206    0.0000 C   0  0  0  0  0  0  0  0  0  0  0  0
   -0.6245   -1.6705    0.0000 C   0  0  0  0  0  0  0  0  0  0  0  0
   -1.5880    2.1242    0.0000 C   0  0  0  0  0  0  0  0  0  0  0  0
    3.0169    0.4331    0.0000 C   0  0  0  0  0  0  0  0  0  0  0  0
   -0.6245   -2.4955    0.0000 C   0  0  0  0  0  0  0  0  0  0  0  0
    0.0000    0.0000    0.0000 H   0  0  0  0  0  0  0  0  0  0  0  0
    0.0000    0.0000    0.0000 H   0  0  0  0  0  0  0  0  0  0  0  0
    0.0000    0.0000    0.0000 H   0  0  0  0  0  0  0  0  0  0  0  0
    0.0000    0.0000    0.0000 H   0  0  0  0  0  0  0  0  0  0  0  0
    0.0000    0.0000    0.0000 H   0  0  0  0  0  0  0  0  0  0  0  0
    0.0000    0.0000    0.0000 H   0  0  0  0  0  0  0  0  0  0  0  0
    0.0000    0.0000    0.0000 H   0  0  0  0  0  0  0  0  0  0  0  0
    0.0000    0.0000    0.0000 H   0  0  0  0  0  0  0  0  0  0  0  0
    0.0000    0.0000    0.0000 H   0  0  0  0  0  0  0  0  0  0  0  0
    0.0000    0.0000    0.0000 H   0  0  0  0  0  0  0  0  0  0  0  0
    0.0000    0.0000    0.0000 H   0  0  0  0  0  0  0  0  0  0  0  0
    0.0000    0.0000    0.0000 H   0  0  0  0  0  0  0  0  0  0  0  0
    0.0000    0.0000    0.0000 H   0  0  0  0  0  0  0  0  0  0  0  0
    0.0000    0.0000    0.0000 H   0  0  0  0  0  0  0  0  0  0  0  0
    0.0000    0.0000    0.0000 H   0  0  0  0  0  0  0  0  0  0  0  0
    0.0000    0.0000    0.0000 H   0  0  0  0  0  0  0  0  0  0  0  0
    0.0000    0.0000    0.0000 H   0  0  0  0  0  0  0  0  0  0  0  0
    0.0000    0.0000    0.0000 H   0  0  0  0  0  0  0  0  0  0  0  0
  2 14  1  0
  3 15  1  0
  4 16  1  0
  5  8  2  0
  5 29  1  0
  6  9  2  0
  6 30  1  0
  7 10  2  0
  7 31  1  0
  8 11  1  0
  8 14  1  0
  9 12  1  0
  9 15  1  0
 10 13  1  0
 10 16  1  0
 11 17  1  0
 11 20  2  0
 12 18  1  0
 12 21  2  0
 13 19  1  0
 13 22  2  0
 14 23  2  0
 15 24  2  0
 16 25  2  0
 17 26  2  0
 18 27  2  0
 19 28  2  0
 20 32  1  0
 21 33  1  0
 22 34  1  0
 23 26  1  0
 24 27  1  0
 25 28  1  0
 29 32  2  0
 30 33  2  0
 31 34  2  0
 17 35  1  0
 18 36  1  0
 19 37  1  0
 20 38  1  0
 21 39  1  0
 22 40  1  0
 23 41  1  0
 24 42  1  0
 25 43  1  0
 26 44  1  0
 27 45  1  0
 28 46  1  0
 29 47  1  0
 30 48  1  0
 31 49  1  0
 32 50  1  0
 33 51  1  0
 34 52  1  0
M  CHG  4   1   3   2  -1   3  -1   4  -1
M  ISO  1   1 111
M  END
>  <ALOGPS_LOGP>  (1) 
5.38

>  <ALOGPS_LOGS>  (1) 
-5.63

>  <ALOGPS_SOLUBILITY>  (1) 
1.28e-03 g/l

>  <DATABASE_ID>  (1) 
DB09473

>  <DATABASE_NAME>  (1) 
drugbank

>  <DRUGBANK_ID>  (1) 
DB09473

>  <DRUG_GROUPS>  (1) 
approved

>  <EXACT_MASS>  (1) 
543.039927129

>  <FORMULA>  (1) 
C27H18InN3O3

>  <GENERIC_NAME>  (1) 
Indium In-111 oxyquinoline

>  <INCHI_IDENTIFIER>  (1) 
InChI=1S/3C9H7NO.In/c3*11-8-5-1-3-7-4-2-6-10-9(7)8;/h3*1-6,11H;/q;;;+3/p-3/i;;;1-4

>  <INCHI_KEY>  (1) 
AEGSYIKLTCZUEZ-FZTWWWDYSA-K

>  <JCHEM_ACCEPTOR_COUNT>  (1) 
2

>  <JCHEM_ATOM_COUNT>  (1) 
52

>  <JCHEM_AVERAGE_POLARIZABILITY>  (1) 
14.482147243858414

>  <JCHEM_BIOAVAILABILITY>  (1) 
0

>  <JCHEM_DONOR_COUNT>  (1) 
0

>  <JCHEM_FORMAL_CHARGE>  (1) 
0

>  <JCHEM_GHOSE_FILTER>  (1) 
0

>  <JCHEM_IUPAC>  (1) 
(111In)indium(3+) ion tris(quinolin-8-olate)

>  <JCHEM_LOGP>  (1) 
1.8273351496666665

>  <JCHEM_MDDR_LIKE_RULE>  (1) 
0

>  <JCHEM_NUMBER_OF_RINGS>  (1) 
6

>  <JCHEM_PHYSIOLOGICAL_CHARGE>  (1) 
0

>  <JCHEM_PKA_STRONGEST_ACIDIC>  (1) 
9.357697226795183

>  <JCHEM_PKA_STRONGEST_BASIC>  (1) 
4.827847757000724

>  <JCHEM_POLAR_SURFACE_AREA>  (1) 
35.95

>  <JCHEM_REFRACTIVITY>  (1) 
52.51050000000001

>  <JCHEM_ROTATABLE_BOND_COUNT>  (1) 
0

>  <JCHEM_RULE_OF_FIVE>  (1) 
0

>  <JCHEM_TRADITIONAL_IUPAC>  (1) 
(111In)indium(3+) ion tris(quinolin-8-olate)

>  <JCHEM_VEBER_RULE>  (1) 
1

>  <MOLECULAR_WEIGHT>  (1) 
543.364

>  <PRODUCTS>  (1) 
Indium 111 Oxyquinolone; Indium in 111 Oxyquinoline

>  <SMILES>  (1) 
[111In+3].[O-]C1=CC=CC2=C1N=CC=C2.[O-]C1=CC=CC2=C1N=CC=C2.[O-]C1=CC=CC2=C1N=CC=C2

>  <SYNONYMS>  (1) 
In-111 oxyquinoline; Indium (111 In) oxyquinoline; Indium (In111) oxine; Indium (In111) oxyquinoline; Indium 111In oxyquinoline; Indium In-111 oxine; Indium In111 oxine; Indium-111 oxine; Indium-111 oxyquinoline

$$$$
