Untitled Document-1
     RDKit          2D

153153  0  0  0  0  0  0  0  0999 V2000
  -12.8605    0.2062    0.0000 C   0  0  0  0  0  0  0  0  0  0  0  0
  -12.8605   -0.6188    0.0000 C   0  0  0  0  0  0  0  0  0  0  0  0
  -13.5749   -1.0313    0.0000 C   0  0  0  0  0  0  0  0  0  0  0  0
  -14.2894   -0.6188    0.0000 C   0  0  0  0  0  0  0  0  0  0  0  0
  -14.2894    0.2062    0.0000 C   0  0  0  0  0  0  0  0  0  0  0  0
  -13.5749    0.6188    0.0000 C   0  0  0  0  0  0  0  0  0  0  0  0
  -12.1460    0.6188    0.0000 O   0  0  0  0  0  0  0  0  0  0  0  0
  -15.0039   -1.0313    0.0000 O   0  0  0  0  0  0  0  0  0  0  0  0
  -13.5749   -1.8563    0.0000 C   0  0  0  0  0  0  0  0  0  0  0  0
  -13.5749    1.4437    0.0000 O   0  0  0  0  0  0  0  0  0  0  0  0
  -14.2894    1.8563    0.0000 C   0  0  0  0  0  0  0  0  0  0  0  0
  -15.0039    0.6187    0.0000 O   0  0  0  0  0  0  0  0  0  0  0  0
  -15.7184    0.2062    0.0000 C   0  0  0  0  0  0  0  0  0  0  0  0
  -12.1460   -1.0313    0.0000 C   0  0  0  0  0  0  0  0  0  0  0  0
  -11.4315   -0.6188    0.0000 C   0  0  0  0  0  0  0  0  0  0  0  0
  -10.7171   -1.0313    0.0000 C   0  0  0  0  0  0  0  0  0  0  0  0
  -10.0026   -0.6188    0.0000 C   0  0  0  0  0  0  0  0  0  0  0  0
   -9.2881   -1.0313    0.0000 C   0  0  0  0  0  0  0  0  0  0  0  0
   -8.5737   -0.6188    0.0000 C   0  0  0  0  0  0  0  0  0  0  0  0
   -7.8592   -1.0313    0.0000 C   0  0  0  0  0  0  0  0  0  0  0  0
   -7.1447   -0.6188    0.0000 C   0  0  0  0  0  0  0  0  0  0  0  0
   -6.4302   -1.0313    0.0000 C   0  0  0  0  0  0  0  0  0  0  0  0
   -5.7158   -0.6188    0.0000 C   0  0  0  0  0  0  0  0  0  0  0  0
   -5.0013   -1.0313    0.0000 C   0  0  0  0  0  0  0  0  0  0  0  0
   -4.2868   -0.6188    0.0000 C   0  0  0  0  0  0  0  0  0  0  0  0
   -3.5724   -1.0313    0.0000 C   0  0  0  0  0  0  0  0  0  0  0  0
   -2.8579   -0.6188    0.0000 C   0  0  0  0  0  0  0  0  0  0  0  0
   -2.1434   -1.0313    0.0000 C   0  0  0  0  0  0  0  0  0  0  0  0
   -1.4289   -0.6188    0.0000 C   0  0  0  0  0  0  0  0  0  0  0  0
   -0.7145   -1.0313    0.0000 C   0  0  0  0  0  0  0  0  0  0  0  0
    0.0000   -0.6188    0.0000 C   0  0  0  0  0  0  0  0  0  0  0  0
    0.7145   -1.0313    0.0000 C   0  0  0  0  0  0  0  0  0  0  0  0
    1.4289   -0.6188    0.0000 C   0  0  0  0  0  0  0  0  0  0  0  0
    2.1434   -1.0313    0.0000 C   0  0  0  0  0  0  0  0  0  0  0  0
    2.8579   -0.6188    0.0000 C   0  0  0  0  0  0  0  0  0  0  0  0
    3.5724   -1.0313    0.0000 C   0  0  0  0  0  0  0  0  0  0  0  0
    4.2868   -0.6188    0.0000 C   0  0  0  0  0  0  0  0  0  0  0  0
    5.0013   -1.0313    0.0000 C   0  0  0  0  0  0  0  0  0  0  0  0
    5.7158   -0.6188    0.0000 C   0  0  0  0  0  0  0  0  0  0  0  0
    6.4302   -1.0313    0.0000 C   0  0  0  0  0  0  0  0  0  0  0  0
    7.1447   -0.6188    0.0000 C   0  0  0  0  0  0  0  0  0  0  0  0
    7.8592   -1.0313    0.0000 C   0  0  0  0  0  0  0  0  0  0  0  0
    8.5737   -0.6188    0.0000 C   0  0  0  0  0  0  0  0  0  0  0  0
    9.2881   -1.0313    0.0000 C   0  0  0  0  0  0  0  0  0  0  0  0
   10.0026   -0.6188    0.0000 C   0  0  0  0  0  0  0  0  0  0  0  0
   10.7171   -1.0313    0.0000 C   0  0  0  0  0  0  0  0  0  0  0  0
   11.4315   -0.6188    0.0000 C   0  0  0  0  0  0  0  0  0  0  0  0
   12.1460   -1.0313    0.0000 C   0  0  0  0  0  0  0  0  0  0  0  0
   12.8605   -0.6188    0.0000 C   0  0  0  0  0  0  0  0  0  0  0  0
   13.5749   -1.0313    0.0000 C   0  0  0  0  0  0  0  0  0  0  0  0
   14.2894   -0.6188    0.0000 C   0  0  0  0  0  0  0  0  0  0  0  0
   15.0039   -1.0313    0.0000 C   0  0  0  0  0  0  0  0  0  0  0  0
   15.7184   -0.6188    0.0000 C   0  0  0  0  0  0  0  0  0  0  0  0
   15.0039   -1.8563    0.0000 C   0  0  0  0  0  0  0  0  0  0  0  0
   12.1460   -1.8563    0.0000 C   0  0  0  0  0  0  0  0  0  0  0  0
    9.2881   -1.8563    0.0000 C   0  0  0  0  0  0  0  0  0  0  0  0
    6.4302   -1.8563    0.0000 C   0  0  0  0  0  0  0  0  0  0  0  0
    3.5724   -1.8563    0.0000 C   0  0  0  0  0  0  0  0  0  0  0  0
    0.7145   -1.8563    0.0000 C   0  0  0  0  0  0  0  0  0  0  0  0
   -2.1434   -1.8563    0.0000 C   0  0  0  0  0  0  0  0  0  0  0  0
   -5.0013   -1.8563    0.0000 C   0  0  0  0  0  0  0  0  0  0  0  0
   -7.8592   -1.8563    0.0000 C   0  0  0  0  0  0  0  0  0  0  0  0
  -10.7171   -1.8563    0.0000 C   0  0  0  0  0  0  0  0  0  0  0  0
    0.0000    0.0000    0.0000 H   0  0  0  0  0  0  0  0  0  0  0  0
    0.0000    0.0000    0.0000 H   0  0  0  0  0  0  0  0  0  0  0  0
    0.0000    0.0000    0.0000 H   0  0  0  0  0  0  0  0  0  0  0  0
    0.0000    0.0000    0.0000 H   0  0  0  0  0  0  0  0  0  0  0  0
    0.0000    0.0000    0.0000 H   0  0  0  0  0  0  0  0  0  0  0  0
    0.0000    0.0000    0.0000 H   0  0  0  0  0  0  0  0  0  0  0  0
    0.0000    0.0000    0.0000 H   0  0  0  0  0  0  0  0  0  0  0  0
    0.0000    0.0000    0.0000 H   0  0  0  0  0  0  0  0  0  0  0  0
    0.0000    0.0000    0.0000 H   0  0  0  0  0  0  0  0  0  0  0  0
    0.0000    0.0000    0.0000 H   0  0  0  0  0  0  0  0  0  0  0  0
    0.0000    0.0000    0.0000 H   0  0  0  0  0  0  0  0  0  0  0  0
    0.0000    0.0000    0.0000 H   0  0  0  0  0  0  0  0  0  0  0  0
    0.0000    0.0000    0.0000 H   0  0  0  0  0  0  0  0  0  0  0  0
    0.0000    0.0000    0.0000 H   0  0  0  0  0  0  0  0  0  0  0  0
    0.0000    0.0000    0.0000 H   0  0  0  0  0  0  0  0  0  0  0  0
    0.0000    0.0000    0.0000 H   0  0  0  0  0  0  0  0  0  0  0  0
    0.0000    0.0000    0.0000 H   0  0  0  0  0  0  0  0  0  0  0  0
    0.0000    0.0000    0.0000 H   0  0  0  0  0  0  0  0  0  0  0  0
    0.0000    0.0000    0.0000 H   0  0  0  0  0  0  0  0  0  0  0  0
    0.0000    0.0000    0.0000 H   0  0  0  0  0  0  0  0  0  0  0  0
    0.0000    0.0000    0.0000 H   0  0  0  0  0  0  0  0  0  0  0  0
    0.0000    0.0000    0.0000 H   0  0  0  0  0  0  0  0  0  0  0  0
    0.0000    0.0000    0.0000 H   0  0  0  0  0  0  0  0  0  0  0  0
    0.0000    0.0000    0.0000 H   0  0  0  0  0  0  0  0  0  0  0  0
    0.0000    0.0000    0.0000 H   0  0  0  0  0  0  0  0  0  0  0  0
    0.0000    0.0000    0.0000 H   0  0  0  0  0  0  0  0  0  0  0  0
    0.0000    0.0000    0.0000 H   0  0  0  0  0  0  0  0  0  0  0  0
    0.0000    0.0000    0.0000 H   0  0  0  0  0  0  0  0  0  0  0  0
    0.0000    0.0000    0.0000 H   0  0  0  0  0  0  0  0  0  0  0  0
    0.0000    0.0000    0.0000 H   0  0  0  0  0  0  0  0  0  0  0  0
    0.0000    0.0000    0.0000 H   0  0  0  0  0  0  0  0  0  0  0  0
    0.0000    0.0000    0.0000 H   0  0  0  0  0  0  0  0  0  0  0  0
    0.0000    0.0000    0.0000 H   0  0  0  0  0  0  0  0  0  0  0  0
    0.0000    0.0000    0.0000 H   0  0  0  0  0  0  0  0  0  0  0  0
    0.0000    0.0000    0.0000 H   0  0  0  0  0  0  0  0  0  0  0  0
    0.0000    0.0000    0.0000 H   0  0  0  0  0  0  0  0  0  0  0  0
    0.0000    0.0000    0.0000 H   0  0  0  0  0  0  0  0  0  0  0  0
    0.0000    0.0000    0.0000 H   0  0  0  0  0  0  0  0  0  0  0  0
    0.0000    0.0000    0.0000 H   0  0  0  0  0  0  0  0  0  0  0  0
    0.0000    0.0000    0.0000 H   0  0  0  0  0  0  0  0  0  0  0  0
    0.0000    0.0000    0.0000 H   0  0  0  0  0  0  0  0  0  0  0  0
    0.0000    0.0000    0.0000 H   0  0  0  0  0  0  0  0  0  0  0  0
    0.0000    0.0000    0.0000 H   0  0  0  0  0  0  0  0  0  0  0  0
    0.0000    0.0000    0.0000 H   0  0  0  0  0  0  0  0  0  0  0  0
    0.0000    0.0000    0.0000 H   0  0  0  0  0  0  0  0  0  0  0  0
    0.0000    0.0000    0.0000 H   0  0  0  0  0  0  0  0  0  0  0  0
    0.0000    0.0000    0.0000 H   0  0  0  0  0  0  0  0  0  0  0  0
    0.0000    0.0000    0.0000 H   0  0  0  0  0  0  0  0  0  0  0  0
    0.0000    0.0000    0.0000 H   0  0  0  0  0  0  0  0  0  0  0  0
    0.0000    0.0000    0.0000 H   0  0  0  0  0  0  0  0  0  0  0  0
    0.0000    0.0000    0.0000 H   0  0  0  0  0  0  0  0  0  0  0  0
    0.0000    0.0000    0.0000 H   0  0  0  0  0  0  0  0  0  0  0  0
    0.0000    0.0000    0.0000 H   0  0  0  0  0  0  0  0  0  0  0  0
    0.0000    0.0000    0.0000 H   0  0  0  0  0  0  0  0  0  0  0  0
    0.0000    0.0000    0.0000 H   0  0  0  0  0  0  0  0  0  0  0  0
    0.0000    0.0000    0.0000 H   0  0  0  0  0  0  0  0  0  0  0  0
    0.0000    0.0000    0.0000 H   0  0  0  0  0  0  0  0  0  0  0  0
    0.0000    0.0000    0.0000 H   0  0  0  0  0  0  0  0  0  0  0  0
    0.0000    0.0000    0.0000 H   0  0  0  0  0  0  0  0  0  0  0  0
    0.0000    0.0000    0.0000 H   0  0  0  0  0  0  0  0  0  0  0  0
    0.0000    0.0000    0.0000 H   0  0  0  0  0  0  0  0  0  0  0  0
    0.0000    0.0000    0.0000 H   0  0  0  0  0  0  0  0  0  0  0  0
    0.0000    0.0000    0.0000 H   0  0  0  0  0  0  0  0  0  0  0  0
    0.0000    0.0000    0.0000 H   0  0  0  0  0  0  0  0  0  0  0  0
    0.0000    0.0000    0.0000 H   0  0  0  0  0  0  0  0  0  0  0  0
    0.0000    0.0000    0.0000 H   0  0  0  0  0  0  0  0  0  0  0  0
    0.0000    0.0000    0.0000 H   0  0  0  0  0  0  0  0  0  0  0  0
    0.0000    0.0000    0.0000 H   0  0  0  0  0  0  0  0  0  0  0  0
    0.0000    0.0000    0.0000 H   0  0  0  0  0  0  0  0  0  0  0  0
    0.0000    0.0000    0.0000 H   0  0  0  0  0  0  0  0  0  0  0  0
    0.0000    0.0000    0.0000 H   0  0  0  0  0  0  0  0  0  0  0  0
    0.0000    0.0000    0.0000 H   0  0  0  0  0  0  0  0  0  0  0  0
    0.0000    0.0000    0.0000 H   0  0  0  0  0  0  0  0  0  0  0  0
    0.0000    0.0000    0.0000 H   0  0  0  0  0  0  0  0  0  0  0  0
    0.0000    0.0000    0.0000 H   0  0  0  0  0  0  0  0  0  0  0  0
    0.0000    0.0000    0.0000 H   0  0  0  0  0  0  0  0  0  0  0  0
    0.0000    0.0000    0.0000 H   0  0  0  0  0  0  0  0  0  0  0  0
    0.0000    0.0000    0.0000 H   0  0  0  0  0  0  0  0  0  0  0  0
    0.0000    0.0000    0.0000 H   0  0  0  0  0  0  0  0  0  0  0  0
    0.0000    0.0000    0.0000 H   0  0  0  0  0  0  0  0  0  0  0  0
    0.0000    0.0000    0.0000 H   0  0  0  0  0  0  0  0  0  0  0  0
    0.0000    0.0000    0.0000 H   0  0  0  0  0  0  0  0  0  0  0  0
    0.0000    0.0000    0.0000 H   0  0  0  0  0  0  0  0  0  0  0  0
    0.0000    0.0000    0.0000 H   0  0  0  0  0  0  0  0  0  0  0  0
    0.0000    0.0000    0.0000 H   0  0  0  0  0  0  0  0  0  0  0  0
    0.0000    0.0000    0.0000 H   0  0  0  0  0  0  0  0  0  0  0  0
    0.0000    0.0000    0.0000 H   0  0  0  0  0  0  0  0  0  0  0  0
    0.0000    0.0000    0.0000 H   0  0  0  0  0  0  0  0  0  0  0  0
    0.0000    0.0000    0.0000 H   0  0  0  0  0  0  0  0  0  0  0  0
    0.0000    0.0000    0.0000 H   0  0  0  0  0  0  0  0  0  0  0  0
  1  2  1  0
  2  3  2  0
  3  4  1  0
  4  5  1  0
  5  6  2  0
  1  6  1  0
  1  7  2  0
  4  8  2  0
  3  9  1  0
 10 11  1  0
  6 10  1  0
 12 13  1  0
  5 12  1  0
 14 15  1  0
 15 16  2  0
 16 17  1  0
 17 18  1  0
 18 19  1  0
 19 20  2  0
 20 21  1  0
 21 22  1  0
 22 23  1  0
 23 24  2  0
 24 25  1  0
 25 26  1  0
 26 27  1  0
 27 28  2  0
 28 29  1  0
 29 30  1  0
 30 31  1  0
 31 32  2  0
 32 33  1  0
 33 34  1  0
 34 35  1  0
 35 36  2  0
 36 37  1  0
 37 38  1  0
 38 39  1  0
 39 40  2  0
 40 41  1  0
 41 42  1  0
 42 43  1  0
 43 44  2  0
 44 45  1  0
 45 46  1  0
 46 47  1  0
 47 48  2  0
 48 49  1  0
 49 50  1  0
 50 51  1  0
 51 52  2  3
 52 53  1  0
 52 54  1  0
 48 55  1  0
 44 56  1  0
 40 57  1  0
 36 58  1  0
 32 59  1  0
 28 60  1  0
 24 61  1  0
 20 62  1  0
 16 63  1  0
  2 14  1  0
  9 64  1  0
  9 65  1  0
  9 66  1  0
 11 67  1  0
 11 68  1  0
 11 69  1  0
 13 70  1  0
 13 71  1  0
 13 72  1  0
 14 73  1  0
 14 74  1  0
 15 75  1  0
 17 76  1  0
 17 77  1  0
 18 78  1  0
 18 79  1  0
 19 80  1  0
 21 81  1  0
 21 82  1  0
 22 83  1  0
 22 84  1  0
 23 85  1  0
 25 86  1  0
 25 87  1  0
 26 88  1  0
 26 89  1  0
 27 90  1  0
 29 91  1  0
 29 92  1  0
 30 93  1  0
 30 94  1  0
 31 95  1  0
 33 96  1  0
 33 97  1  0
 34 98  1  0
 34 99  1  0
 35100  1  0
 37101  1  0
 37102  1  0
 38103  1  0
 38104  1  0
 39105  1  0
 41106  1  0
 41107  1  0
 42108  1  0
 42109  1  0
 43110  1  0
 45111  1  0
 45112  1  0
 46113  1  0
 46114  1  0
 47115  1  0
 49116  1  0
 49117  1  0
 50118  1  0
 50119  1  0
 51120  1  0
 53121  1  0
 53122  1  0
 53123  1  0
 54124  1  0
 54125  1  0
 54126  1  0
 55127  1  0
 55128  1  0
 55129  1  0
 56130  1  0
 56131  1  0
 56132  1  0
 57133  1  0
 57134  1  0
 57135  1  0
 58136  1  0
 58137  1  0
 58138  1  0
 59139  1  0
 59140  1  0
 59141  1  0
 60142  1  0
 60143  1  0
 60144  1  0
 61145  1  0
 61146  1  0
 61147  1  0
 62148  1  0
 62149  1  0
 62150  1  0
 63151  1  0
 63152  1  0
 63153  1  0
M  END
>  <ALOGPS_LOGP>  (1) 
9.94

>  <ALOGPS_LOGS>  (1) 
-6.65

>  <ALOGPS_SOLUBILITY>  (1) 
1.93e-04 g/l

>  <DATABASE_ID>  (1) 
DB09270

>  <DATABASE_NAME>  (1) 
drugbank

>  <DRUGBANK_ID>  (1) 
DB09270

>  <DRUG_GROUPS>  (1) 
approved; investigational; nutraceutical

>  <EXACT_MASS>  (1) 
862.683911368

>  <FORMULA>  (1) 
C59H90O4

>  <GENERIC_NAME>  (1) 
Ubidecarenone

>  <INCHI_IDENTIFIER>  (1) 
InChI=1S/C59H90O4/c1-44(2)24-15-25-45(3)26-16-27-46(4)28-17-29-47(5)30-18-31-48(6)32-19-33-49(7)34-20-35-50(8)36-21-37-51(9)38-22-39-52(10)40-23-41-53(11)42-43-55-54(12)56(60)58(62-13)59(63-14)57(55)61/h24,26,28,30,32,34,36,38,40,42H,15-23,25,27,29,31,33,35,37,39,41,43H2,1-14H3/b45-26+,46-28+,47-30+,48-32+,49-34+,50-36+,51-38+,52-40+,53-42+

>  <INCHI_KEY>  (1) 
ACTIUHUUMQJHFO-UPTCCGCDSA-N

>  <JCHEM_ACCEPTOR_COUNT>  (1) 
4

>  <JCHEM_AVERAGE_POLARIZABILITY>  (1) 
112.37604011484702

>  <JCHEM_BIOAVAILABILITY>  (1) 
0

>  <JCHEM_DONOR_COUNT>  (1) 
0

>  <JCHEM_FORMAL_CHARGE>  (1) 
0

>  <JCHEM_GHOSE_FILTER>  (1) 
0

>  <JCHEM_IUPAC>  (1) 
2-[(2E,6E,10E,14E,18E,22E,26E,30E,34E)-3,7,11,15,19,23,27,31,35,39-decamethyltetraconta-2,6,10,14,18,22,26,30,34,38-decaen-1-yl]-5,6-dimethoxy-3-methylcyclohexa-2,5-diene-1,4-dione

>  <JCHEM_LOGP>  (1) 
17.156128291

>  <JCHEM_MDDR_LIKE_RULE>  (1) 
0

>  <JCHEM_NUMBER_OF_RINGS>  (1) 
1

>  <JCHEM_PHYSIOLOGICAL_CHARGE>  (1) 
0

>  <JCHEM_PKA_STRONGEST_BASIC>  (1) 
-4.718903581971888

>  <JCHEM_POLAR_SURFACE_AREA>  (1) 
52.60000000000001

>  <JCHEM_REFRACTIVITY>  (1) 
286.60519999999997

>  <JCHEM_ROTATABLE_BOND_COUNT>  (1) 
31

>  <JCHEM_RULE_OF_FIVE>  (1) 
0

>  <JCHEM_TRADITIONAL_IUPAC>  (1) 
coenzyme-Q10

>  <JCHEM_VEBER_RULE>  (1) 
0

>  <MOLECULAR_WEIGHT>  (1) 
863.3435

>  <PRODUCTS>  (1) 
Acti-ubiquinone 50 Cap 50mg; Biogard Ubiquinone Cap 30mg; Biomed Co Q 10; Biosculpt; Cell Tech Coenzyme Q10 - Cap 30mg; Cellsparc 360; Co Q 10 - 50mg Cap; Co-Q 10 Capsules 50 mg; Co-Q-10 Capsules 30mg; Co-enzyme Q-10; Co-enzyme Q-10 Capsules; Co-enzyme Q10 100mg; Co-enzyme Q10 30mg Capsules; Co-enzyme Q10 50mg Capsules; Co-enzyme Q10 60 mg; Co-enzyme Q10 60mg Capsules; Co-enzyme Q10 Cap 30mg; Co-enzyme-q10 Tab; Co-q10 (ubiquinone); Co-q10 - Cap 60mg; Co-q10 30mg; Co-q10 30mg (ubiquinone); Co-q10 60 Mg Capsules; Co-q10 Cap 30mg; Co-q10 and Vitamin E; Coenzyme Co Q10 Cap 10mg; Coenzyme Co Q10 Cap 30mg; Coenzyme Q-10; Coenzyme Q-10 - 30 mg; Coenzyme Q-10 60 mg; Coenzyme Q10; Coenzyme Q10 (60 Mg); Coenzyme Q10 - 10mg (ubiquinone); Coenzyme Q10 - 30mg (ubiquinone); Coenzyme Q10 - Capsule 30 mg; Coenzyme Q10 100 mg; Coenzyme Q10 100mg; Coenzyme Q10 30 mg; Coenzyme Q10 30mg; Coenzyme Q10 50 mg; Coenzyme Q10 50mg; Coenzyme Q10 60mg; Coenzyme Q10 60mg Cap; Coenzyme Q10 60mg Capsules; Coenzyme Q10 80mg; Coenzyme Q10 Cap 15mg; Coenzyme Q10 Cap 30mg; Coenzyme Q10 Isotonix Vitamin and Mineral Supplement; Coenzyme Q10 Tab 10mg; Coenzyme Q10 Ubiquinone 60mg - Cap; Coenzyme Q10 With Hawthorn Extract and Citrus Bioflavonoids; Coenzyme-q10 M.R.B.; Coq-10; Coq10; Coquinone Coenzyme Q-10 Capsules; Daily Supplement Packs; Formula B; Formula Dpr; Formula S.E.; Formula Statin Support; L.I.P. Complex; N.E.U. Complex; N.U.T. Complex; Neutral C + Coenzyme Q10 - Cap; Neutral C + Coenzyme Q10 Plus Vitamins & Minerals; Now Coq10 100 mg; Nutri-chem Coenzyme Q10 20mg; PreQue 10; Q-10 Plus; Q-gel Coenzyme Q10; Q-gel Forte Coenzyme Q10; Qmelt; Rocky Mountain Co Q 10 Cap 25mg; Super 7 Vitamin and Mineral Supplement; Thera Q Plus; Tru-sorb Coq10; Ubiquinone Capsules 20mg; Usana Optimizer Coquinone Coenzyme Q-10 Capsules; Vitamin E and Coq10; Watkins Coq10

>  <SALTS>  (1) 
Coenzyme q10, (2z)-

>  <SMILES>  (1) 
COC1=C(OC)C(=O)C(C\C=C(/C)CC\C=C(/C)CC\C=C(/C)CC\C=C(/C)CC\C=C(/C)CC\C=C(/C)CC\C=C(/C)CC\C=C(/C)CC\C=C(/C)CCC=C(C)C)=C(C)C1=O

>  <SYNONYMS>  (1) 
Coenzyme Q-10; Coenzyme Q10

$$$$
