
     RDKit          2D

 10  8  0  0  0  0  0  0  0  0999 V2000
   -0.9760    0.3019    0.0000 O   0  0  0  0  0  0  0  0  0  0  0  0
   -0.1509    0.3019    0.0000 P   0  0  0  0  0  0  0  0  0  0  0  0
   -0.1509    1.1270    0.0000 O   0  0  0  0  0  0  0  0  0  0  0  0
   -0.1509   -0.5230    0.0000 O   0  0  0  0  0  0  0  0  0  0  0  0
    0.6741    0.3019    0.0000 O   0  0  0  0  0  0  0  0  0  0  0  0
    1.0866   -0.4125    0.0000 P   0  0  0  0  0  0  0  0  0  0  0  0
    1.4991   -1.1270    0.0000 O   0  0  0  0  0  0  0  0  0  0  0  0
    1.8010    0.0000    0.0000 O   0  0  0  0  0  0  0  0  0  0  0  0
    0.3720   -0.8251    0.0000 O   0  0  0  0  0  0  0  0  0  0  0  0
   -1.8010    0.3019    0.0000 Tc  0  0  0  0  0  0  0  0  0  0  0  0
  1  2  1  0
  2  3  2  0
  2  4  1  0
  2  5  1  0
  5  6  1  0
  6  7  2  0
  6  8  1  0
  6  9  1  0
M  CHG  5   1  -1   4  -1   8  -1   9  -1  10   4
M  ISO  1  10  99
M  END
>  <ALOGPS_LOGP>  (1) 
1.43

>  <ALOGPS_LOGS>  (1) 
-1.60

>  <ALOGPS_SOLUBILITY>  (1) 
1.08e+01 g/l

>  <DATABASE_ID>  (1) 
DB09165

>  <DATABASE_NAME>  (1) 
drugbank

>  <DRUGBANK_ID>  (1) 
DB09165

>  <DRUG_GROUPS>  (1) 
approved

>  <EXACT_MASS>  (1) 
272.81818089

>  <FORMULA>  (1) 
O7P2Tc

>  <GENERIC_NAME>  (1) 
Technetium Tc-99m pyrophosphate

>  <INCHI_IDENTIFIER>  (1) 
InChI=1S/H4O7P2.Tc/c1-8(2,3)7-9(4,5)6;/h(H2,1,2,3)(H2,4,5,6);/q;+4/p-4/i;1+2

>  <INCHI_KEY>  (1) 
OOGKGVXDDGJCPO-NLQOEHMXSA-J

>  <JCHEM_ACCEPTOR_COUNT>  (1) 
6

>  <JCHEM_ATOM_COUNT>  (1) 
10

>  <JCHEM_AVERAGE_POLARIZABILITY>  (1) 
9.028812898011715

>  <JCHEM_BIOAVAILABILITY>  (1) 
1

>  <JCHEM_DONOR_COUNT>  (1) 
0

>  <JCHEM_FORMAL_CHARGE>  (1) 
0

>  <JCHEM_GHOSE_FILTER>  (1) 
0

>  <JCHEM_IUPAC>  (1) 
(99Tc)technetium(4+) ion (phosphonooxy)phosphonate

>  <JCHEM_LOGP>  (1) 
-1.4419023016666666

>  <JCHEM_MDDR_LIKE_RULE>  (1) 
0

>  <JCHEM_NUMBER_OF_RINGS>  (1) 
0

>  <JCHEM_PHYSIOLOGICAL_CHARGE>  (1) 
-3

>  <JCHEM_PKA>  (1) 
3.060391741362254

>  <JCHEM_PKA_STRONGEST_ACIDIC>  (1) 
1.7026764435673858

>  <JCHEM_POLAR_SURFACE_AREA>  (1) 
135.61

>  <JCHEM_REFRACTIVITY>  (1) 
21.038000000000004

>  <JCHEM_ROTATABLE_BOND_COUNT>  (1) 
2

>  <JCHEM_RULE_OF_FIVE>  (1) 
1

>  <JCHEM_TRADITIONAL_IUPAC>  (1) 
(99Tc)technetium(4+) ion phosphonooxyphosphonate

>  <JCHEM_VEBER_RULE>  (1) 
0

>  <MOLECULAR_WEIGHT>  (1) 
272.847

>  <PRODUCTS>  (1) 
Kit for the Preparation of Technetium Tc99m Pyrophosphate; Technescan PYP

>  <SECONDARY_ACCESSION_NUMBERS>  (1) 
DB09417

>  <SMILES>  (1) 
[99Tc+4].[O-]P([O-])(=O)OP([O-])([O-])=O

>  <SYNONYMS>  (1) 
Technetium (99mTc) pyrophosphate; Technetium TC 99M Pyrophosphate

$$$$
