
     RDKit          2D

 70 72  0  0  0  0  0  0  0  0999 V2000
    1.4165    7.2286    0.0000 C   0  0  0  0  0  0  0  0  0  0  0  0
   -3.6918    6.4254    0.0000 C   0  0  0  0  0  0  0  0  0  0  0  0
    0.2221    5.6554    0.0000 C   0  0  0  0  0  0  0  0  0  0  0  0
   -1.5641    5.9383    0.0000 C   0  0  0  0  0  0  0  0  0  0  0  0
    0.8230    6.6555    0.0000 C   0  0  0  0  0  0  0  0  0  0  0  0
   -2.9634    6.8127    0.0000 C   0  0  0  0  0  0  0  0  0  0  0  0
   -1.1517    1.1121    0.0000 C   0  0  0  0  0  0  0  0  0  0  0  0
   -0.4372    1.5246    0.0000 C   0  0  0  0  0  0  0  0  0  0  0  0
   -1.8661    1.5246    0.0000 C   0  0  0  0  0  0  0  0  0  0  0  0
    0.2348    3.1078    0.0000 C   0  0  0  0  0  0  0  0  0  0  0  0
   -0.7578    4.1357    0.0000 C   0  0  0  0  0  0  0  0  0  0  0  0
   -1.1018    4.1902    0.0000 C   0  0  0  0  0  0  0  0  0  0  0  0
   -2.3635    3.5194    0.0000 C   0  0  0  0  0  0  0  0  0  0  0  0
    0.8283    3.6809    0.0000 C   0  0  0  0  0  0  0  0  0  0  0  0
   -0.1643    4.7088    0.0000 C   0  0  0  0  0  0  0  0  0  0  0  0
   -1.4891    4.9186    0.0000 C   0  0  0  0  0  0  0  0  0  0  0  0
   -2.7508    4.2478    0.0000 C   0  0  0  0  0  0  0  0  0  0  0  0
   -0.4372    2.3496    0.0000 C   0  0  0  0  0  0  0  0  0  0  0  0
   -1.8661    2.3496    0.0000 C   0  0  0  0  0  0  0  0  0  0  0  0
   -0.5582    3.3352    0.0000 C   0  0  0  0  0  0  0  0  0  0  0  0
   -1.5390    3.4906    0.0000 C   0  0  0  0  0  0  0  0  0  0  0  0
    0.6287    4.4814    0.0000 C   0  0  0  0  0  0  0  0  0  0  0  0
   -2.3136    4.9474    0.0000 C   0  0  0  0  0  0  0  0  0  0  0  0
    1.8231    6.0546    0.0000 C   0  0  0  0  0  0  0  0  0  0  0  0
   -1.8265    7.0751    0.0000 C   0  0  0  0  0  0  0  0  0  0  0  0
    1.0226    5.8550    0.0000 C   0  0  0  0  0  0  0  0  0  0  0  0
   -2.2637    6.3755    0.0000 C   0  0  0  0  0  0  0  0  0  0  0  0
   -1.1517    2.7621    0.0000 C   0  0  0  0  0  0  0  0  0  0  0  0
    2.0505    6.8476    0.0000 O   0  0  0  0  0  0  0  0  0  0  0  0
    2.3962    5.4611    0.0000 O   0  0  0  0  0  0  0  0  0  0  0  0
   -1.0020    7.0464    0.0000 O   0  0  0  0  0  0  0  0  0  0  0  0
   -2.2139    7.8036    0.0000 O   0  0  0  0  0  0  0  0  0  0  0  0
    1.2222    5.0545    0.0000 O   0  0  0  0  0  0  0  0  0  0  0  0
   -2.7009    5.6759    0.0000 O   0  0  0  0  0  0  0  0  0  0  0  0
    0.0000    0.0000    0.0000 H   0  0  0  0  0  0  0  0  0  0  0  0
    0.0000    0.0000    0.0000 H   0  0  0  0  0  0  0  0  0  0  0  0
    0.0000    0.0000    0.0000 H   0  0  0  0  0  0  0  0  0  0  0  0
    0.0000    0.0000    0.0000 H   0  0  0  0  0  0  0  0  0  0  0  0
    0.0000    0.0000    0.0000 H   0  0  0  0  0  0  0  0  0  0  0  0
    0.0000    0.0000    0.0000 H   0  0  0  0  0  0  0  0  0  0  0  0
    0.0000    0.0000    0.0000 H   0  0  0  0  0  0  0  0  0  0  0  0
    0.0000    0.0000    0.0000 H   0  0  0  0  0  0  0  0  0  0  0  0
    0.0000    0.0000    0.0000 H   0  0  0  0  0  0  0  0  0  0  0  0
    0.0000    0.0000    0.0000 H   0  0  0  0  0  0  0  0  0  0  0  0
    0.0000    0.0000    0.0000 H   0  0  0  0  0  0  0  0  0  0  0  0
    0.0000    0.0000    0.0000 H   0  0  0  0  0  0  0  0  0  0  0  0
    0.0000    0.0000    0.0000 H   0  0  0  0  0  0  0  0  0  0  0  0
    0.0000    0.0000    0.0000 H   0  0  0  0  0  0  0  0  0  0  0  0
    0.0000    0.0000    0.0000 H   0  0  0  0  0  0  0  0  0  0  0  0
    0.0000    0.0000    0.0000 H   0  0  0  0  0  0  0  0  0  0  0  0
    0.0000    0.0000    0.0000 H   0  0  0  0  0  0  0  0  0  0  0  0
    0.0000    0.0000    0.0000 H   0  0  0  0  0  0  0  0  0  0  0  0
    0.0000    0.0000    0.0000 H   0  0  0  0  0  0  0  0  0  0  0  0
    0.0000    0.0000    0.0000 H   0  0  0  0  0  0  0  0  0  0  0  0
    0.0000    0.0000    0.0000 H   0  0  0  0  0  0  0  0  0  0  0  0
    0.0000    0.0000    0.0000 H   0  0  0  0  0  0  0  0  0  0  0  0
    0.0000    0.0000    0.0000 H   0  0  0  0  0  0  0  0  0  0  0  0
    0.0000    0.0000    0.0000 H   0  0  0  0  0  0  0  0  0  0  0  0
    0.0000    0.0000    0.0000 H   0  0  0  0  0  0  0  0  0  0  0  0
    0.0000    0.0000    0.0000 H   0  0  0  0  0  0  0  0  0  0  0  0
    0.0000    0.0000    0.0000 H   0  0  0  0  0  0  0  0  0  0  0  0
    0.0000    0.0000    0.0000 H   0  0  0  0  0  0  0  0  0  0  0  0
    0.0000    0.0000    0.0000 H   0  0  0  0  0  0  0  0  0  0  0  0
    0.0000    0.0000    0.0000 H   0  0  0  0  0  0  0  0  0  0  0  0
    0.0000    0.0000    0.0000 H   0  0  0  0  0  0  0  0  0  0  0  0
    0.0000    0.0000    0.0000 H   0  0  0  0  0  0  0  0  0  0  0  0
    0.0000    0.0000    0.0000 H   0  0  0  0  0  0  0  0  0  0  0  0
    0.0000    0.0000    0.0000 H   0  0  0  0  0  0  0  0  0  0  0  0
    0.0000    0.0000    0.0000 H   0  0  0  0  0  0  0  0  0  0  0  0
    0.0000    0.0000    0.0000 H   0  0  0  0  0  0  0  0  0  0  0  0
  5  1  1  0
  6  2  1  0
  8  7  1  0
  9  7  1  0
 14 10  2  0
 15 11  1  0
 16 12  2  0
 17 13  1  0
 18  8  1  0
 19  9  1  0
 20 10  1  0
 20 11  2  0
 21 12  1  0
 21 13  2  0
 22 14  1  0
 22 15  2  0
 23 16  1  0
 23 17  2  0
 26  3  1  0
 26  5  1  0
 26 24  1  0
 27  4  1  0
 27  6  1  0
 27 25  1  0
 28 18  1  0
 28 19  1  0
 28 20  1  0
 28 21  1  0
 29 24  2  0
 30 24  1  0
 31 25  2  0
 32 25  1  0
 33 22  1  0
 33 26  1  0
 34 23  1  0
 34 27  1  0
  1 35  1  0
  1 36  1  0
  1 37  1  0
  2 38  1  0
  2 39  1  0
  2 40  1  0
  3 41  1  0
  3 42  1  0
  3 43  1  0
  4 44  1  0
  4 45  1  0
  4 46  1  0
  5 47  1  0
  5 48  1  0
  6 49  1  0
  6 50  1  0
  7 51  1  0
  7 52  1  0
  8 53  1  0
  8 54  1  0
  9 55  1  0
  9 56  1  0
 10 57  1  0
 11 58  1  0
 12 59  1  0
 13 60  1  0
 14 61  1  0
 15 62  1  0
 16 63  1  0
 17 64  1  0
 18 65  1  0
 18 66  1  0
 19 67  1  0
 19 68  1  0
 30 69  1  0
 32 70  1  0
M  END
>  <ALOGPS_LOGP>  (1) 
5.75

>  <ALOGPS_LOGS>  (1) 
-6.32

>  <ALOGPS_SOLUBILITY>  (1) 
2.27e-04 g/l

>  <DATABASE_ID>  (1) 
DB09006

>  <DATABASE_NAME>  (1) 
drugbank

>  <DRUGBANK_ID>  (1) 
DB09006

>  <DRUG_GROUPS>  (1) 
approved

>  <EXACT_MASS>  (1) 
468.251188879

>  <FORMULA>  (1) 
C28H36O6

>  <GENERIC_NAME>  (1) 
Clinofibrate

>  <INCHI_IDENTIFIER>  (1) 
InChI=1S/C28H36O6/c1-5-26(3,24(29)30)33-22-14-10-20(11-15-22)28(18-8-7-9-19-28)21-12-16-23(17-13-21)34-27(4,6-2)25(31)32/h10-17H,5-9,18-19H2,1-4H3,(H,29,30)(H,31,32)

>  <INCHI_KEY>  (1) 
BMOVQUBVGICXQN-UHFFFAOYSA-N

>  <INTERNATIONAL_BRANDS>  (1) 
Lipoclin; Lipofibrate; Prinmate

>  <JCHEM_ACCEPTOR_COUNT>  (1) 
6

>  <JCHEM_ATOM_COUNT>  (1) 
70

>  <JCHEM_AVERAGE_POLARIZABILITY>  (1) 
52.23575544784027

>  <JCHEM_BIOAVAILABILITY>  (1) 
1

>  <JCHEM_DONOR_COUNT>  (1) 
2

>  <JCHEM_FORMAL_CHARGE>  (1) 
0

>  <JCHEM_GHOSE_FILTER>  (1) 
0

>  <JCHEM_IUPAC>  (1) 
2-(4-{1-[4-(1-carboxy-1-methylpropoxy)phenyl]cyclohexyl}phenoxy)-2-methylbutanoic acid

>  <JCHEM_LOGP>  (1) 
7.210815283666667

>  <JCHEM_MDDR_LIKE_RULE>  (1) 
1

>  <JCHEM_NUMBER_OF_RINGS>  (1) 
3

>  <JCHEM_PHYSIOLOGICAL_CHARGE>  (1) 
-2

>  <JCHEM_PKA>  (1) 
4.002158565474649

>  <JCHEM_PKA_STRONGEST_ACIDIC>  (1) 
3.3984363919702276

>  <JCHEM_PKA_STRONGEST_BASIC>  (1) 
-4.6151370882682805

>  <JCHEM_POLAR_SURFACE_AREA>  (1) 
93.06

>  <JCHEM_REFRACTIVITY>  (1) 
139.87210000000005

>  <JCHEM_ROTATABLE_BOND_COUNT>  (1) 
10

>  <JCHEM_RULE_OF_FIVE>  (1) 
0

>  <JCHEM_TRADITIONAL_IUPAC>  (1) 
clinofibrate

>  <JCHEM_VEBER_RULE>  (1) 
0

>  <MOLECULAR_WEIGHT>  (1) 
468.59

>  <SMILES>  (1) 
CCC(C)(OC1=CC=C(C=C1)C1(CCCCC1)C1=CC=C(OC(C)(CC)C(O)=O)C=C1)C(O)=O

$$$$
