
     RDKit          2D

  1  0  0  0  0  0  0  0  0  0999 V2000
    0.0000    0.0000    0.0000 I   0  0  0  0  0  0  0  0  0  0  0  0
M  CHG  1   1  -1
M  ISO  1   1 123
M  END
>  <DATABASE_ID>  (1) 
DB09420

>  <DATABASE_NAME>  (1) 
drugbank

>  <DRUGBANK_ID>  (1) 
DB09420

>  <DRUG_GROUPS>  (1) 
approved

>  <EXACT_MASS>  (1) 
122.906146524

>  <FORMULA>  (1) 
I

>  <GENERIC_NAME>  (1) 
Iodide I-123

>  <INCHI_IDENTIFIER>  (1) 
InChI=1S/HI/h1H/p-1/i1-4

>  <INCHI_KEY>  (1) 
XMBWDFGMSWQBCA-AHCXROLUSA-M

>  <JCHEM_ACCEPTOR_COUNT>  (1) 
0

>  <JCHEM_ATOM_COUNT>  (1) 
1

>  <JCHEM_AVERAGE_POLARIZABILITY>  (1) 
5.07487188

>  <JCHEM_BIOAVAILABILITY>  (1) 
1

>  <JCHEM_DONOR_COUNT>  (1) 
0

>  <JCHEM_FORMAL_CHARGE>  (1) 
-1

>  <JCHEM_GHOSE_FILTER>  (1) 
0

>  <JCHEM_IUPAC>  (1) 
(123I)iodide

>  <JCHEM_LOGP>  (1) 
1.02055578

>  <JCHEM_MDDR_LIKE_RULE>  (1) 
0

>  <JCHEM_NUMBER_OF_RINGS>  (1) 
0

>  <JCHEM_PHYSIOLOGICAL_CHARGE>  (1) 
-1

>  <JCHEM_PKA_STRONGEST_ACIDIC>  (1) 
-8.999999999999996

>  <JCHEM_POLAR_SURFACE_AREA>  (1) 
0.0

>  <JCHEM_REFRACTIVITY>  (1) 
13.9462

>  <JCHEM_ROTATABLE_BOND_COUNT>  (1) 
0

>  <JCHEM_RULE_OF_FIVE>  (1) 
1

>  <JCHEM_TRADITIONAL_IUPAC>  (1) 
(123I)iodide

>  <JCHEM_VEBER_RULE>  (1) 
1

>  <MOLECULAR_WEIGHT>  (1) 
122.9061

>  <PRODUCTS>  (1) 
I 123 Mini; Sodium Iodide I 123

>  <SALTS>  (1) 
Sodium iodide I-123

>  <SECONDARY_ACCESSION_NUMBERS>  (1) 
DB11240

>  <SMILES>  (1) 
[123I-]

>  <SYNONYMS>  (1) 
123Iâˆ’; I 123; I-123; Iodide ion i-123; Iodine 123; Iodine-123

$$$$
