
     RDKit          2D

 53 54  0  0  0  0  0  0  0  0999 V2000
   -0.7105   -0.6928    0.0000 C   0  0  0  0  0  0  0  0  0  0  0  0
    0.0000   -1.1120    0.0000 C   0  0  0  0  0  0  0  0  0  0  0  0
   -1.4211   -1.1120    0.0000 C   0  0  0  0  0  0  0  0  0  0  0  0
   -0.7105    0.7283    0.0000 C   0  0  0  0  0  0  0  0  0  0  0  0
    0.0000   -1.9433    0.0000 C   0  0  0  0  0  0  0  0  0  0  0  0
    0.7105   -0.6928    0.0000 C   0  0  0  0  0  0  0  0  0  0  0  0
   -1.4211   -1.9433    0.0000 C   0  0  0  0  0  0  0  0  0  0  0  0
   -2.1317   -0.7354    0.0000 C   0  0  0  0  0  0  0  0  0  0  0  0
    0.0000    1.1475    0.0000 C   0  0  0  0  0  0  0  0  0  0  0  0
   -1.4211    1.1475    0.0000 C   0  0  0  0  0  0  0  0  0  0  0  0
   -0.7105   -2.3626    0.0000 N   0  0  0  0  0  0  0  0  0  0  0  0
    0.7105   -2.3626    0.0000 C   0  0  0  0  0  0  0  0  0  0  0  0
    1.4211   -1.1120    0.0000 O   0  0  0  0  0  0  0  0  0  0  0  0
    0.7105    0.1030    0.0000 O   0  0  0  0  0  0  0  0  0  0  0  0
   -2.1317   -2.3626    0.0000 C   0  0  0  0  0  0  0  0  0  0  0  0
   -2.8423   -1.1120    0.0000 O   0  0  0  0  0  0  0  0  0  0  0  0
   -2.1317    0.1030    0.0000 O   0  0  0  0  0  0  0  0  0  0  0  0
    0.0000    1.9433    0.0000 C   0  0  0  0  0  0  0  0  0  0  0  0
    0.7105    0.7283    0.0000 Cl  0  0  0  0  0  0  0  0  0  0  0  0
   -1.4211    1.9433    0.0000 C   0  0  0  0  0  0  0  0  0  0  0  0
    1.4211   -1.9433    0.0000 O   0  0  0  0  0  0  0  0  0  0  0  0
    2.1316   -0.6928    0.0000 C   0  0  0  0  0  0  0  0  0  0  0  0
   -3.5528   -0.7354    0.0000 C   0  0  0  0  0  0  0  0  0  0  0  0
   -0.7105    2.3626    0.0000 C   0  0  0  0  0  0  0  0  0  0  0  0
    2.1316   -2.3626    0.0000 C   0  0  0  0  0  0  0  0  0  0  0  0
    2.8423   -1.1120    0.0000 C   0  0  0  0  0  0  0  0  0  0  0  0
    2.8423   -1.9433    0.0000 C   0  0  0  0  0  0  0  0  0  0  0  0
    3.5528   -2.3626    0.0000 N   0  0  0  0  0  0  0  0  0  0  0  0
    0.0000    0.0000    0.0000 H   0  0  0  0  0  0  0  0  0  0  0  0
    0.0000    0.0000    0.0000 H   0  0  0  0  0  0  0  0  0  0  0  0
    0.0000    0.0000    0.0000 H   0  0  0  0  0  0  0  0  0  0  0  0
    0.0000    0.0000    0.0000 H   0  0  0  0  0  0  0  0  0  0  0  0
    0.0000    0.0000    0.0000 H   0  0  0  0  0  0  0  0  0  0  0  0
    0.0000    0.0000    0.0000 H   0  0  0  0  0  0  0  0  0  0  0  0
    0.0000    0.0000    0.0000 H   0  0  0  0  0  0  0  0  0  0  0  0
    0.0000    0.0000    0.0000 H   0  0  0  0  0  0  0  0  0  0  0  0
    0.0000    0.0000    0.0000 H   0  0  0  0  0  0  0  0  0  0  0  0
    0.0000    0.0000    0.0000 H   0  0  0  0  0  0  0  0  0  0  0  0
    0.0000    0.0000    0.0000 H   0  0  0  0  0  0  0  0  0  0  0  0
    0.0000    0.0000    0.0000 H   0  0  0  0  0  0  0  0  0  0  0  0
    0.0000    0.0000    0.0000 H   0  0  0  0  0  0  0  0  0  0  0  0
    0.0000    0.0000    0.0000 H   0  0  0  0  0  0  0  0  0  0  0  0
    0.0000    0.0000    0.0000 H   0  0  0  0  0  0  0  0  0  0  0  0
    0.0000    0.0000    0.0000 H   0  0  0  0  0  0  0  0  0  0  0  0
    0.0000    0.0000    0.0000 H   0  0  0  0  0  0  0  0  0  0  0  0
    0.0000    0.0000    0.0000 H   0  0  0  0  0  0  0  0  0  0  0  0
    0.0000    0.0000    0.0000 H   0  0  0  0  0  0  0  0  0  0  0  0
    0.0000    0.0000    0.0000 H   0  0  0  0  0  0  0  0  0  0  0  0
    0.0000    0.0000    0.0000 H   0  0  0  0  0  0  0  0  0  0  0  0
    0.0000    0.0000    0.0000 H   0  0  0  0  0  0  0  0  0  0  0  0
    0.0000    0.0000    0.0000 H   0  0  0  0  0  0  0  0  0  0  0  0
    0.0000    0.0000    0.0000 H   0  0  0  0  0  0  0  0  0  0  0  0
    0.0000    0.0000    0.0000 H   0  0  0  0  0  0  0  0  0  0  0  0
  1  2  1  0
  1  3  1  0
  1  4  1  6
  2  5  2  0
  2  6  1  0
  3  7  2  0
  3  8  1  0
  4  9  2  0
  4 10  1  0
  5 11  1  0
  5 12  1  0
  6 13  1  0
  6 14  2  0
  7 15  1  0
  7 11  1  0
  8 16  1  0
  8 17  2  0
  9 18  1  0
  9 19  1  0
 10 20  2  0
 12 21  1  0
 13 22  1  0
 16 23  1  0
 18 24  2  0
 20 24  1  0
 21 25  1  0
 22 26  1  0
 25 27  1  0
 27 28  1  0
  1 29  1  0
 10 30  1  0
 11 31  1  0
 12 32  1  0
 12 33  1  0
 15 34  1  0
 15 35  1  0
 15 36  1  0
 18 37  1  0
 20 38  1  0
 22 39  1  0
 22 40  1  0
 23 41  1  0
 23 42  1  0
 23 43  1  0
 24 44  1  0
 25 45  1  0
 25 46  1  0
 26 47  1  0
 26 48  1  0
 26 49  1  0
 27 50  1  0
 27 51  1  0
 28 52  1  0
 28 53  1  0
M  END
>  <ALOGPS_LOGP>  (1) 
2.22

>  <ALOGPS_LOGS>  (1) 
-4.74

>  <ALOGPS_SOLUBILITY>  (1) 
7.40e-03 g/l

>  <DATABASE_ID>  (1) 
DB09237

>  <DATABASE_NAME>  (1) 
drugbank

>  <DRUGBANK_ID>  (1) 
DB09237

>  <DRUG_GROUPS>  (1) 
approved; investigational

>  <EXACT_MASS>  (1) 
408.1451996

>  <FORMULA>  (1) 
C20H25ClN2O5

>  <GENERIC_NAME>  (1) 
Levamlodipine

>  <INCHI_IDENTIFIER>  (1) 
InChI=1S/C20H25ClN2O5/c1-4-28-20(25)18-15(11-27-10-9-22)23-12(2)16(19(24)26-3)17(18)13-7-5-6-8-14(13)21/h5-8,17,23H,4,9-11,22H2,1-3H3/t17-/m0/s1

>  <INCHI_KEY>  (1) 
HTIQEAQVCYTUBX-KRWDZBQOSA-N

>  <INTERNATIONAL_BRANDS>  (1) 
Asomex; EsCordi Cor; Eslo; Espin

>  <JCHEM_ACCEPTOR_COUNT>  (1) 
5

>  <JCHEM_ATOM_COUNT>  (1) 
53

>  <JCHEM_AVERAGE_POLARIZABILITY>  (1) 
42.10738389225915

>  <JCHEM_BIOAVAILABILITY>  (1) 
1

>  <JCHEM_DONOR_COUNT>  (1) 
2

>  <JCHEM_FORMAL_CHARGE>  (1) 
0

>  <JCHEM_GHOSE_FILTER>  (1) 
1

>  <JCHEM_IUPAC>  (1) 
3-ethyl 5-methyl (4S)-2-[(2-aminoethoxy)methyl]-4-(2-chlorophenyl)-6-methyl-1,4-dihydropyridine-3,5-dicarboxylate

>  <JCHEM_LOGP>  (1) 
1.6355954516666678

>  <JCHEM_MDDR_LIKE_RULE>  (1) 
0

>  <JCHEM_NUMBER_OF_RINGS>  (1) 
2

>  <JCHEM_PHYSIOLOGICAL_CHARGE>  (1) 
1

>  <JCHEM_PKA_STRONGEST_ACIDIC>  (1) 
19.12333262212675

>  <JCHEM_PKA_STRONGEST_BASIC>  (1) 
9.445646936621939

>  <JCHEM_POLAR_SURFACE_AREA>  (1) 
99.88

>  <JCHEM_REFRACTIVITY>  (1) 
108.6381

>  <JCHEM_ROTATABLE_BOND_COUNT>  (1) 
10

>  <JCHEM_RULE_OF_FIVE>  (1) 
1

>  <JCHEM_TRADITIONAL_IUPAC>  (1) 
amlodipine besylate

>  <JCHEM_VEBER_RULE>  (1) 
0

>  <MOLECULAR_WEIGHT>  (1) 
408.88

>  <SMILES>  (1) 
CCOC(=O)C1=C(COCCN)NC(C)=C([C@@H]1C1=CC=CC=C1Cl)C(=O)OC

>  <SYNONYMS>  (1) 
Levoamlodipine; S-amlodipine

$$$$
