
     RDKit          2D

 30 31  0  0  0  0  0  0  0  0999 V2000
   -0.3081    0.5844    0.0000 N   0  0  0  0  0  0  0  0  0  0  0  0
    0.4063   -0.6530    0.0000 N   0  0  0  0  0  0  0  0  0  0  0  0
   -0.3081   -1.8905    0.0000 N   0  0  0  0  0  0  0  0  0  0  0  0
    1.1870   -0.4016    0.0000 N   0  0  0  0  0  0  0  0  0  0  0  0
    1.1870   -1.7294    0.0000 N   0  0  0  0  0  0  0  0  0  0  0  0
   -0.3081   -0.2405    0.0000 C   0  0  0  0  0  0  0  0  0  0  0  0
   -1.0225    0.9969    0.0000 C   0  0  0  0  0  0  0  0  0  0  0  0
    0.4063    0.9969    0.0000 C   0  0  0  0  0  0  0  0  0  0  0  0
   -1.0225   -0.6530    0.0000 C   0  0  0  0  0  0  0  0  0  0  0  0
    0.4063   -1.4780    0.0000 C   0  0  0  0  0  0  0  0  0  0  0  0
   -1.0225   -1.4780    0.0000 C   0  0  0  0  0  0  0  0  0  0  0  0
   -1.0225    1.8219    0.0000 C   0  0  0  0  0  0  0  0  0  0  0  0
    0.4063    1.8219    0.0000 C   0  0  0  0  0  0  0  0  0  0  0  0
   -1.7370   -1.8905    0.0000 C   0  0  0  0  0  0  0  0  0  0  0  0
    1.6684   -1.0655    0.0000 C   0  0  0  0  0  0  0  0  0  0  0  0
    0.0000    0.0000    0.0000 H   0  0  0  0  0  0  0  0  0  0  0  0
    0.0000    0.0000    0.0000 H   0  0  0  0  0  0  0  0  0  0  0  0
    0.0000    0.0000    0.0000 H   0  0  0  0  0  0  0  0  0  0  0  0
    0.0000    0.0000    0.0000 H   0  0  0  0  0  0  0  0  0  0  0  0
    0.0000    0.0000    0.0000 H   0  0  0  0  0  0  0  0  0  0  0  0
    0.0000    0.0000    0.0000 H   0  0  0  0  0  0  0  0  0  0  0  0
    0.0000    0.0000    0.0000 H   0  0  0  0  0  0  0  0  0  0  0  0
    0.0000    0.0000    0.0000 H   0  0  0  0  0  0  0  0  0  0  0  0
    0.0000    0.0000    0.0000 H   0  0  0  0  0  0  0  0  0  0  0  0
    0.0000    0.0000    0.0000 H   0  0  0  0  0  0  0  0  0  0  0  0
    0.0000    0.0000    0.0000 H   0  0  0  0  0  0  0  0  0  0  0  0
    0.0000    0.0000    0.0000 H   0  0  0  0  0  0  0  0  0  0  0  0
    0.0000    0.0000    0.0000 H   0  0  0  0  0  0  0  0  0  0  0  0
    0.0000    0.0000    0.0000 H   0  0  0  0  0  0  0  0  0  0  0  0
    0.0000    0.0000    0.0000 H   0  0  0  0  0  0  0  0  0  0  0  0
  1  6  1  0
  1  7  1  0
  1  8  1  0
  2  4  1  0
  2  6  1  0
  2 10  1  0
  3 10  1  0
  3 11  2  0
  4 15  2  0
  5 10  2  0
  5 15  1  0
  6  9  2  0
  7 12  1  0
  8 13  1  0
  9 11  1  0
 11 14  1  0
  7 16  1  0
  7 17  1  0
  8 18  1  0
  8 19  1  0
  9 20  1  0
 12 21  1  0
 12 22  1  0
 12 23  1  0
 13 24  1  0
 13 25  1  0
 13 26  1  0
 14 27  1  0
 14 28  1  0
 14 29  1  0
 15 30  1  0
M  END
>  <ALOGPS_LOGP>  (1) 
1.85

>  <ALOGPS_LOGS>  (1) 
-2.03

>  <ALOGPS_SOLUBILITY>  (1) 
1.93e+00 g/l

>  <DATABASE_ID>  (1) 
DB09283

>  <DATABASE_NAME>  (1) 
drugbank

>  <DRUGBANK_ID>  (1) 
DB09283

>  <DRUG_GROUPS>  (1) 
approved

>  <EXACT_MASS>  (1) 
205.132745503

>  <FORMULA>  (1) 
C10H15N5

>  <GENERIC_NAME>  (1) 
Trapidil

>  <INCHI_IDENTIFIER>  (1) 
InChI=1S/C10H15N5/c1-4-14(5-2)9-6-8(3)13-10-11-7-12-15(9)10/h6-7H,4-5H2,1-3H3

>  <INCHI_KEY>  (1) 
GSNOZLZNQMLSKJ-UHFFFAOYSA-N

>  <JCHEM_ACCEPTOR_COUNT>  (1) 
4

>  <JCHEM_ATOM_COUNT>  (1) 
30

>  <JCHEM_AVERAGE_POLARIZABILITY>  (1) 
22.547412990630455

>  <JCHEM_BIOAVAILABILITY>  (1) 
1

>  <JCHEM_DONOR_COUNT>  (1) 
0

>  <JCHEM_FORMAL_CHARGE>  (1) 
0

>  <JCHEM_GHOSE_FILTER>  (1) 
1

>  <JCHEM_IUPAC>  (1) 
N,N-diethyl-5-methyl-[1,2,4]triazolo[1,5-a]pyrimidin-7-amine

>  <JCHEM_LOGP>  (1) 
1.254873538

>  <JCHEM_MDDR_LIKE_RULE>  (1) 
0

>  <JCHEM_NUMBER_OF_RINGS>  (1) 
2

>  <JCHEM_PHYSIOLOGICAL_CHARGE>  (1) 
0

>  <JCHEM_PKA_STRONGEST_BASIC>  (1) 
1.0231379719547515

>  <JCHEM_POLAR_SURFACE_AREA>  (1) 
46.32

>  <JCHEM_REFRACTIVITY>  (1) 
71.3755

>  <JCHEM_ROTATABLE_BOND_COUNT>  (1) 
3

>  <JCHEM_RULE_OF_FIVE>  (1) 
1

>  <JCHEM_TRADITIONAL_IUPAC>  (1) 
trapidil

>  <JCHEM_VEBER_RULE>  (1) 
0

>  <MOLECULAR_WEIGHT>  (1) 
205.265

>  <SMILES>  (1) 
CCN(CC)C1=CC(C)=NC2=NC=NN12

$$$$
