
     RDKit          2D

 35 38  0  0  0  0  0  0  0  0999 V2000
   -1.6089    0.3918    0.0000 C   0  0  0  0  0  0  0  0  0  0  0  0
   -1.6089   -0.4332    0.0000 C   0  0  0  0  0  0  0  0  0  0  0  0
   -0.9076   -0.8457    0.0000 C   0  0  0  0  0  0  0  0  0  0  0  0
   -0.2062   -0.4332    0.0000 C   0  0  0  0  0  0  0  0  0  0  0  0
   -0.2062    0.3918    0.0000 C   0  0  0  0  0  0  0  0  0  0  0  0
   -0.9076    0.8044    0.0000 C   0  0  0  0  0  0  0  0  0  0  0  0
    0.5776   -0.6807    0.0000 N   0  0  0  0  0  0  0  0  0  0  0  0
    1.0726   -0.0206    0.0000 C   0  0  0  0  0  0  0  0  0  0  0  0
    0.5776    0.6394    0.0000 C   0  0  0  0  0  0  0  0  0  0  0  0
    1.8977   -0.0206    0.0000 C   0  0  0  0  0  0  0  0  0  0  0  0
   -2.3103    0.8044    0.0000 C   0  0  0  0  0  0  0  0  0  0  0  0
    1.0313    1.4233    0.0000 C   0  0  0  0  0  0  0  0  0  0  0  0
    2.3103    0.7219    0.0000 C   0  0  0  0  0  0  0  0  0  0  0  0
    1.8564    1.4233    0.0000 C   0  0  0  0  0  0  0  0  0  0  0  0
    1.0313   -1.4233    0.0000 C   0  0  0  0  0  0  0  0  0  0  0  0
    1.8564   -1.4233    0.0000 C   0  0  0  0  0  0  0  0  0  0  0  0
    2.2690   -0.7219    0.0000 N   0  0  0  0  0  0  0  0  0  0  0  0
    0.0000    0.0000    0.0000 H   0  0  0  0  0  0  0  0  0  0  0  0
    0.0000    0.0000    0.0000 H   0  0  0  0  0  0  0  0  0  0  0  0
    0.0000    0.0000    0.0000 H   0  0  0  0  0  0  0  0  0  0  0  0
    0.0000    0.0000    0.0000 H   0  0  0  0  0  0  0  0  0  0  0  0
    0.0000    0.0000    0.0000 H   0  0  0  0  0  0  0  0  0  0  0  0
    0.0000    0.0000    0.0000 H   0  0  0  0  0  0  0  0  0  0  0  0
    0.0000    0.0000    0.0000 H   0  0  0  0  0  0  0  0  0  0  0  0
    0.0000    0.0000    0.0000 H   0  0  0  0  0  0  0  0  0  0  0  0
    0.0000    0.0000    0.0000 H   0  0  0  0  0  0  0  0  0  0  0  0
    0.0000    0.0000    0.0000 H   0  0  0  0  0  0  0  0  0  0  0  0
    0.0000    0.0000    0.0000 H   0  0  0  0  0  0  0  0  0  0  0  0
    0.0000    0.0000    0.0000 H   0  0  0  0  0  0  0  0  0  0  0  0
    0.0000    0.0000    0.0000 H   0  0  0  0  0  0  0  0  0  0  0  0
    0.0000    0.0000    0.0000 H   0  0  0  0  0  0  0  0  0  0  0  0
    0.0000    0.0000    0.0000 H   0  0  0  0  0  0  0  0  0  0  0  0
    0.0000    0.0000    0.0000 H   0  0  0  0  0  0  0  0  0  0  0  0
    0.0000    0.0000    0.0000 H   0  0  0  0  0  0  0  0  0  0  0  0
    0.0000    0.0000    0.0000 H   0  0  0  0  0  0  0  0  0  0  0  0
  1  2  2  0
  2  3  1  0
  3  4  2  0
  4  5  1  0
  5  6  2  0
  1  6  1  0
  4  7  1  0
  7  8  1  0
  8  9  2  0
  5  9  1  0
  8 10  1  0
  1 11  1  0
 12  9  1  0
 10 13  1  0
 13 14  1  0
 12 14  1  0
  7 15  1  0
 15 16  1  0
 16 17  1  0
 17 10  1  0
  2 18  1  0
  3 19  1  0
  6 20  1  0
 10 21  1  0
 11 22  1  0
 11 23  1  0
 11 24  1  0
 12 25  1  0
 12 26  1  0
 13 27  1  0
 13 28  1  0
 14 29  1  0
 14 30  1  0
 15 31  1  0
 15 32  1  0
 16 33  1  0
 16 34  1  0
 17 35  1  0
M  END
>  <ALOGPS_LOGP>  (1) 
2.10

>  <ALOGPS_LOGS>  (1) 
-3.33

>  <ALOGPS_SOLUBILITY>  (1) 
1.07e-01 g/l

>  <DATABASE_ID>  (1) 
DB09244

>  <DATABASE_NAME>  (1) 
drugbank

>  <DRUGBANK_ID>  (1) 
DB09244

>  <DRUG_GROUPS>  (1) 
approved

>  <EXACT_MASS>  (1) 
226.146998588

>  <FORMULA>  (1) 
C15H18N2

>  <GENERIC_NAME>  (1) 
Pirlindole

>  <INCHI_IDENTIFIER>  (1) 
InChI=1S/C15H18N2/c1-10-5-6-14-12(9-10)11-3-2-4-13-15(11)17(14)8-7-16-13/h5-6,9,13,16H,2-4,7-8H2,1H3

>  <INCHI_KEY>  (1) 
IWVRVEIKCBFZNF-UHFFFAOYSA-N

>  <JCHEM_ACCEPTOR_COUNT>  (1) 
1

>  <JCHEM_ATOM_COUNT>  (1) 
35

>  <JCHEM_AVERAGE_POLARIZABILITY>  (1) 
27.265314363900888

>  <JCHEM_BIOAVAILABILITY>  (1) 
1

>  <JCHEM_DONOR_COUNT>  (1) 
1

>  <JCHEM_FORMAL_CHARGE>  (1) 
0

>  <JCHEM_GHOSE_FILTER>  (1) 
1

>  <JCHEM_IUPAC>  (1) 
12-methyl-1,4-diazatetracyclo[7.6.1.0⁵,¹⁶.0¹⁰,¹⁵]hexadeca-9(16),10,12,14-tetraene

>  <JCHEM_LOGP>  (1) 
3.104723180333333

>  <JCHEM_MDDR_LIKE_RULE>  (1) 
0

>  <JCHEM_NUMBER_OF_RINGS>  (1) 
4

>  <JCHEM_PHYSIOLOGICAL_CHARGE>  (1) 
1

>  <JCHEM_PKA_STRONGEST_BASIC>  (1) 
8.379546750924018

>  <JCHEM_POLAR_SURFACE_AREA>  (1) 
16.96

>  <JCHEM_REFRACTIVITY>  (1) 
70.4207

>  <JCHEM_ROTATABLE_BOND_COUNT>  (1) 
0

>  <JCHEM_RULE_OF_FIVE>  (1) 
1

>  <JCHEM_TRADITIONAL_IUPAC>  (1) 
pirlindole

>  <JCHEM_VEBER_RULE>  (1) 
1

>  <MOLECULAR_WEIGHT>  (1) 
226.323

>  <SMILES>  (1) 
CC1=CC=C2N3CCNC4CCCC(=C34)C2=C1

$$$$
