
     RDKit          2D

 20 19  0  0  1  0  0  0  0  0999 V2000
    3.1895    1.8414    0.0000 C   0  0  0  0  0  0  0  0  0  0  0  0
    3.1895    2.6664    0.0000 O   0  0  0  0  0  0  0  0  0  0  0  0
    2.4750    1.4289    0.0000 C   0  0  0  0  0  0  0  0  0  0  0  0
    1.7605    1.8414    0.0000 O   0  0  0  0  0  0  0  0  0  0  0  0
    3.9039    1.4289    0.0000 C   0  0  0  0  0  0  0  0  0  0  0  0
    3.9039    0.6039    0.0000 O   0  0  0  0  0  0  0  0  0  0  0  0
    4.6184    1.8414    0.0000 C   0  0  0  0  0  0  0  0  0  0  0  0
    4.6184    2.6664    0.0000 O   0  0  0  0  0  0  0  0  0  0  0  0
    5.3329    1.4289    0.0000 C   0  0  0  0  0  0  0  0  0  0  0  0
    6.0474    1.8414    0.0000 O   0  0  0  0  0  0  0  0  0  0  0  0
    0.0000    0.0000    0.0000 H   0  0  0  0  0  0  0  0  0  0  0  0
    0.0000    0.0000    0.0000 H   0  0  0  0  0  0  0  0  0  0  0  0
    0.0000    0.0000    0.0000 H   0  0  0  0  0  0  0  0  0  0  0  0
    0.0000    0.0000    0.0000 H   0  0  0  0  0  0  0  0  0  0  0  0
    0.0000    0.0000    0.0000 H   0  0  0  0  0  0  0  0  0  0  0  0
    0.0000    0.0000    0.0000 H   0  0  0  0  0  0  0  0  0  0  0  0
    0.0000    0.0000    0.0000 H   0  0  0  0  0  0  0  0  0  0  0  0
    0.0000    0.0000    0.0000 H   0  0  0  0  0  0  0  0  0  0  0  0
    0.0000    0.0000    0.0000 H   0  0  0  0  0  0  0  0  0  0  0  0
    0.0000    0.0000    0.0000 H   0  0  0  0  0  0  0  0  0  0  0  0
  1  2  1  6
  1  3  1  0
  3  4  1  0
  1  5  1  0
  5  6  1  1
  5  7  1  0
  7  8  1  1
  7  9  1  0
  9 10  2  0
  1 11  1  0
  2 12  1  0
  3 13  1  0
  3 14  1  0
  4 15  1  0
  5 16  1  0
  6 17  1  0
  7 18  1  0
  8 19  1  0
  9 20  1  0
M  END
>  <ALOGPS_LOGP>  (1) 
-2.28

>  <ALOGPS_LOGS>  (1) 
0.40

>  <ALOGPS_SOLUBILITY>  (1) 
3.80e+02 g/l

>  <DATABASE_ID>  (1) 
DB09419

>  <DATABASE_NAME>  (1) 
drugbank

>  <DRUGBANK_ID>  (1) 
DB09419

>  <DRUG_GROUPS>  (1) 
approved

>  <EXACT_MASS>  (1) 
150.05282343

>  <FORMULA>  (1) 
C5H10O5

>  <GENERIC_NAME>  (1) 
Xylose

>  <INCHI_IDENTIFIER>  (1) 
InChI=1S/C5H10O5/c6-1-3(8)5(10)4(9)2-7/h1,3-5,7-10H,2H2/t3-,4+,5+/m0/s1

>  <INCHI_KEY>  (1) 
PYMYPHUHKUWMLA-VPENINKCSA-N

>  <JCHEM_ACCEPTOR_COUNT>  (1) 
5

>  <JCHEM_AVERAGE_POLARIZABILITY>  (1) 
13.454511113538501

>  <JCHEM_BIOAVAILABILITY>  (1) 
1

>  <JCHEM_DONOR_COUNT>  (1) 
4

>  <JCHEM_FORMAL_CHARGE>  (1) 
0

>  <JCHEM_GHOSE_FILTER>  (1) 
0

>  <JCHEM_IUPAC>  (1) 
(2R,3S,4R)-2,3,4,5-tetrahydroxypentanal

>  <JCHEM_LOGP>  (1) 
-2.9380256209999995

>  <JCHEM_MDDR_LIKE_RULE>  (1) 
0

>  <JCHEM_NUMBER_OF_RINGS>  (1) 
0

>  <JCHEM_PHYSIOLOGICAL_CHARGE>  (1) 
0

>  <JCHEM_PKA>  (1) 
12.05193577352083

>  <JCHEM_PKA_STRONGEST_ACIDIC>  (1) 
11.871096474968176

>  <JCHEM_PKA_STRONGEST_BASIC>  (1) 
-2.9744929158468105

>  <JCHEM_POLAR_SURFACE_AREA>  (1) 
97.99000000000001

>  <JCHEM_REFRACTIVITY>  (1) 
31.3831

>  <JCHEM_ROTATABLE_BOND_COUNT>  (1) 
4

>  <JCHEM_RULE_OF_FIVE>  (1) 
1

>  <JCHEM_TRADITIONAL_IUPAC>  (1) 
xylose

>  <JCHEM_VEBER_RULE>  (1) 
0

>  <MOLECULAR_WEIGHT>  (1) 
150.1299

>  <PRODUCTS>  (1) 
Xylo-pfan; Xylo-tol Pwr 25gm/pck

>  <SMILES>  (1) 
OC[C@@H](O)[C@H](O)[C@@H](O)C=O

$$$$
