
     RDKit          2D

 17 17  0  0  0  0  0  0  0  0999 V2000
    1.4294   -0.4132    0.0000 O   0  0  0  0  0  0  0  0  0  0  0  0
    1.4294   -1.2382    0.0000 C   0  0  0  0  0  0  0  0  0  0  0  0
   -1.4294    1.2382    0.0000 O   0  0  0  0  0  0  0  0  0  0  0  0
   -0.7144    0.8243    0.0000 C   0  0  0  0  0  0  0  0  0  0  0  0
    0.0006    1.2367    0.0000 C   0  0  0  0  0  0  0  0  0  0  0  0
    0.7144    0.8243    0.0000 C   0  0  0  0  0  0  0  0  0  0  0  0
    0.7144   -0.0007    0.0000 C   0  0  0  0  0  0  0  0  0  0  0  0
   -0.0007   -0.4132    0.0000 C   0  0  0  0  0  0  0  0  0  0  0  0
   -0.7144    0.0007    0.0000 C   0  0  0  0  0  0  0  0  0  0  0  0
    0.0000    0.0000    0.0000 H   0  0  0  0  0  0  0  0  0  0  0  0
    0.0000    0.0000    0.0000 H   0  0  0  0  0  0  0  0  0  0  0  0
    0.0000    0.0000    0.0000 H   0  0  0  0  0  0  0  0  0  0  0  0
    0.0000    0.0000    0.0000 H   0  0  0  0  0  0  0  0  0  0  0  0
    0.0000    0.0000    0.0000 H   0  0  0  0  0  0  0  0  0  0  0  0
    0.0000    0.0000    0.0000 H   0  0  0  0  0  0  0  0  0  0  0  0
    0.0000    0.0000    0.0000 H   0  0  0  0  0  0  0  0  0  0  0  0
    0.0000    0.0000    0.0000 H   0  0  0  0  0  0  0  0  0  0  0  0
  1  2  1  0
  1  7  1  0
  3  4  1  0
  4  5  2  0
  4  9  1  0
  5  6  1  0
  6  7  2  0
  7  8  1  0
  8  9  2  0
  2 10  1  0
  2 11  1  0
  2 12  1  0
  3 13  1  0
  5 14  1  0
  6 15  1  0
  8 16  1  0
  9 17  1  0
M  END
>  <ALOGPS_LOGP>  (1) 
1.31

>  <ALOGPS_LOGS>  (1) 
-0.54

>  <ALOGPS_SOLUBILITY>  (1) 
3.61e+01 g/l

>  <DATABASE_ID>  (1) 
DB09516

>  <DATABASE_NAME>  (1) 
drugbank

>  <DRUGBANK_ID>  (1) 
DB09516

>  <DRUG_GROUPS>  (1) 
approved

>  <EXACT_MASS>  (1) 
124.0524295

>  <FORMULA>  (1) 
C7H8O2

>  <GENERIC_NAME>  (1) 
Mequinol

>  <INCHI_IDENTIFIER>  (1) 
InChI=1S/C7H8O2/c1-9-7-4-2-6(8)3-5-7/h2-5,8H,1H3

>  <INCHI_KEY>  (1) 
NWVVVBRKAWDGAB-UHFFFAOYSA-N

>  <JCHEM_ACCEPTOR_COUNT>  (1) 
2

>  <JCHEM_AVERAGE_POLARIZABILITY>  (1) 
12.762679643524663

>  <JCHEM_BIOAVAILABILITY>  (1) 
1

>  <JCHEM_DONOR_COUNT>  (1) 
1

>  <JCHEM_FORMAL_CHARGE>  (1) 
0

>  <JCHEM_GHOSE_FILTER>  (1) 
0

>  <JCHEM_IUPAC>  (1) 
4-methoxyphenol

>  <JCHEM_LOGP>  (1) 
1.5120092286666669

>  <JCHEM_MDDR_LIKE_RULE>  (1) 
0

>  <JCHEM_NUMBER_OF_RINGS>  (1) 
1

>  <JCHEM_PHYSIOLOGICAL_CHARGE>  (1) 
0

>  <JCHEM_PKA_STRONGEST_ACIDIC>  (1) 
9.940502868815058

>  <JCHEM_PKA_STRONGEST_BASIC>  (1) 
-4.81035092669965

>  <JCHEM_POLAR_SURFACE_AREA>  (1) 
29.46

>  <JCHEM_REFRACTIVITY>  (1) 
34.5021

>  <JCHEM_ROTATABLE_BOND_COUNT>  (1) 
1

>  <JCHEM_RULE_OF_FIVE>  (1) 
1

>  <JCHEM_TRADITIONAL_IUPAC>  (1) 
methoxyphenol

>  <JCHEM_VEBER_RULE>  (1) 
1

>  <MOLECULAR_WEIGHT>  (1) 
124.1372

>  <PRODUCTS>  (1) 
SolagÃ©

>  <SMILES>  (1) 
COC1=CC=C(O)C=C1

>  <SYNONYMS>  (1) 
4-Methoxyphenol

$$$$
