
     RDKit          2D

 27 20  0  0  0  0  0  0  0  0999 V2000
   14.4006  -11.7000    0.0000 C   0  0  0  0  0  0  0  0  0  0  0  0
   13.6861  -12.1125    0.0000 C   0  0  0  0  0  0  0  0  0  0  0  0
   12.9717  -11.7000    0.0000 O   0  0  0  0  0  0  0  0  0  0  0  0
   13.6861  -12.9375    0.0000 O   0  0  0  0  0  0  0  0  0  0  0  0
   10.7010  -11.0958    0.0000 O   0  0  0  0  0  0  0  0  0  0  0  0
    9.9865  -11.5083    0.0000 C   0  0  0  0  0  0  0  0  0  0  0  0
    9.2720  -11.0958    0.0000 C   0  0  0  0  0  0  0  0  0  0  0  0
   11.6988  -11.9441    0.0000 Mg  0  0  0  0  0  0  0  0  0  0  0  0
   12.0422   -9.5403    0.0000 O   0  0  0  0  0  0  0  0  0  0  0  0
   13.0380  -10.2615    0.0000 O   0  0  0  0  0  0  0  0  0  0  0  0
    9.9865  -12.3333    0.0000 O   0  0  0  0  0  0  0  0  0  0  0  0
   13.8622   -9.6204    0.0000 O   0  0  0  0  0  0  0  0  0  0  0  0
   10.5655  -10.0096    0.0000 O   0  0  0  0  0  0  0  0  0  0  0  0
    0.0000    0.0000    0.0000 H   0  0  0  0  0  0  0  0  0  0  0  0
    0.0000    0.0000    0.0000 H   0  0  0  0  0  0  0  0  0  0  0  0
    0.0000    0.0000    0.0000 H   0  0  0  0  0  0  0  0  0  0  0  0
    0.0000    0.0000    0.0000 H   0  0  0  0  0  0  0  0  0  0  0  0
    0.0000    0.0000    0.0000 H   0  0  0  0  0  0  0  0  0  0  0  0
    0.0000    0.0000    0.0000 H   0  0  0  0  0  0  0  0  0  0  0  0
    0.0000    0.0000    0.0000 H   0  0  0  0  0  0  0  0  0  0  0  0
    0.0000    0.0000    0.0000 H   0  0  0  0  0  0  0  0  0  0  0  0
    0.0000    0.0000    0.0000 H   0  0  0  0  0  0  0  0  0  0  0  0
    0.0000    0.0000    0.0000 H   0  0  0  0  0  0  0  0  0  0  0  0
    0.0000    0.0000    0.0000 H   0  0  0  0  0  0  0  0  0  0  0  0
    0.0000    0.0000    0.0000 H   0  0  0  0  0  0  0  0  0  0  0  0
    0.0000    0.0000    0.0000 H   0  0  0  0  0  0  0  0  0  0  0  0
    0.0000    0.0000    0.0000 H   0  0  0  0  0  0  0  0  0  0  0  0
  2  1  1  0
  3  2  1  0
  4  2  2  0
  5  6  1  0
  6  7  1  0
  6 11  2  0
  1 14  1  0
  1 15  1  0
  1 16  1  0
  7 17  1  0
  7 18  1  0
  7 19  1  0
  9 20  1  0
  9 21  1  0
 10 22  1  0
 10 23  1  0
 12 24  1  0
 12 25  1  0
 13 26  1  0
 13 27  1  0
M  CHG  3   3  -1   5  -1   8   2
M  END
>  <ALOGPS_LOGP>  (1) 
0.29

>  <ALOGPS_LOGS>  (1) 
-0.16

>  <ALOGPS_SOLUBILITY>  (1) 
9.82e+01 g/l

>  <DATABASE_ID>  (1) 
DB09409

>  <DATABASE_NAME>  (1) 
drugbank

>  <DRUGBANK_ID>  (1) 
DB09409

>  <DRUG_GROUPS>  (1) 
approved

>  <EXACT_MASS>  (1) 
214.05390911

>  <FORMULA>  (1) 
C4H14MgO8

>  <GENERIC_NAME>  (1) 
Magnesium acetate tetrahydrate

>  <INCHI_IDENTIFIER>  (1) 
InChI=1S/2C2H4O2.Mg.4H2O/c2*1-2(3)4;;;;;/h2*1H3,(H,3,4);;4*1H2/q;;+2;;;;/p-2

>  <INCHI_KEY>  (1) 
XKPKPGCRSHFTKM-UHFFFAOYSA-L

>  <JCHEM_ACCEPTOR_COUNT>  (1) 
2

>  <JCHEM_ATOM_COUNT>  (1) 
27

>  <JCHEM_AVERAGE_POLARIZABILITY>  (1) 
4.955986793934291

>  <JCHEM_BIOAVAILABILITY>  (1) 
1

>  <JCHEM_DONOR_COUNT>  (1) 
0

>  <JCHEM_FORMAL_CHARGE>  (1) 
0

>  <JCHEM_GHOSE_FILTER>  (1) 
0

>  <JCHEM_IUPAC>  (1) 
magnesium(2+) ion diacetate tetrahydrate

>  <JCHEM_LOGP>  (1) 
-0.2233457143333334

>  <JCHEM_MDDR_LIKE_RULE>  (1) 
0

>  <JCHEM_NUMBER_OF_RINGS>  (1) 
0

>  <JCHEM_PHYSIOLOGICAL_CHARGE>  (1) 
-1

>  <JCHEM_PKA_STRONGEST_ACIDIC>  (1) 
4.543439679000835

>  <JCHEM_POLAR_SURFACE_AREA>  (1) 
40.129999999999995

>  <JCHEM_REFRACTIVITY>  (1) 
23.480800000000002

>  <JCHEM_ROTATABLE_BOND_COUNT>  (1) 
0

>  <JCHEM_RULE_OF_FIVE>  (1) 
1

>  <JCHEM_TRADITIONAL_IUPAC>  (1) 
magnesium(2+) ion diacetate tetrahydrate

>  <JCHEM_VEBER_RULE>  (1) 
0

>  <MOLECULAR_WEIGHT>  (1) 
214.453

>  <PRODUCTS>  (1) 
Plasma-lyte 56 and Dextrose

>  <SMILES>  (1) 
O.O.O.O.[Mg++].CC([O-])=O.CC([O-])=O

>  <SYNONYMS>  (1) 
Acetic acid, magnesium salt, tetrahydrate; Magnesium diacetate tetrahydrate

$$$$
