
     RDKit          2D

 78 80  0  0  0  0  0  0  0  0999 V2000
   -2.3446   -0.0726    0.0000 N   0  0  0  0  0  0  0  0  0  0  0  0
   -2.3495    0.7460    0.0000 C   0  0  0  0  0  0  0  0  0  0  0  0
   -3.1730   -0.0823    0.0000 C   0  0  0  0  0  0  0  0  0  0  0  0
   -3.1730    0.7460    0.0000 C   0  0  0  0  0  0  0  0  0  0  0  0
   -1.5598   -0.3293    0.0000 C   0  0  0  0  0  0  0  0  0  0  0  0
   -1.5647    1.0028    0.0000 S   0  0  0  0  0  0  0  0  0  0  0  0
   -1.0803    0.3391    0.0000 C   0  0  0  0  0  0  0  0  0  0  0  0
   -3.8901    1.1626    0.0000 N   0  0  0  0  0  0  0  0  0  0  0  0
   -1.5647   -1.1481    0.0000 C   0  0  0  0  0  0  0  0  0  0  0  0
   -4.6119    0.7460    0.0000 C   0  0  0  0  0  0  0  0  0  0  0  0
    3.2651    0.2761    0.0000 C   0  0  0  0  0  0  0  0  0  0  0  0
   -3.7544   -0.6636    0.0000 O   0  0  0  0  0  0  0  0  0  0  0  0
    2.5675   -0.1307    0.0000 C   0  0  0  0  0  0  0  0  0  0  0  0
   -2.2865   -1.5550    0.0000 O   0  0  0  0  0  0  0  0  0  0  0  0
   -4.6119   -0.0726    0.0000 O   0  0  0  0  0  0  0  0  0  0  0  0
    3.2360    1.0609    0.0000 O   0  0  0  0  0  0  0  0  0  0  0  0
   -5.3239    1.1626    0.0000 C   0  0  0  0  0  0  0  0  0  0  0  0
    2.5529   -1.0172    0.0000 C   0  0  0  0  0  0  0  0  0  0  0  0
    1.7972    0.3052    0.0000 C   0  0  0  0  0  0  0  0  0  0  0  0
    3.9627   -0.1404    0.0000 O   0  0  0  0  0  0  0  0  0  0  0  0
   -0.8622   -1.5695    0.0000 O   0  0  0  0  0  0  0  0  0  0  0  0
    1.0561   -0.9882    0.0000 C   0  0  0  0  0  0  0  0  0  0  0  0
   -0.3681   -0.0726    0.0000 C   0  0  0  0  0  0  0  0  0  0  0  0
   -0.3681    0.7556    0.0000 C   0  0  0  0  0  0  0  0  0  0  0  0
    6.0652    0.2665    0.0000 N   0  0  0  0  0  0  0  0  0  0  0  0
    0.3439   -1.3952    0.0000 N   0  0  0  0  0  0  0  0  0  0  0  0
    1.8069   -1.4339    0.0000 C   0  0  0  0  0  0  0  0  0  0  0  0
    1.0561   -0.1162    0.0000 C   0  0  0  0  0  0  0  0  0  0  0  0
   -6.0361    0.7460    0.0000 C   0  0  0  0  0  0  0  0  0  0  0  0
    4.6699    0.2615    0.0000 C   0  0  0  0  0  0  0  0  0  0  0  0
    5.3579   -0.1307    0.0000 C   0  0  0  0  0  0  0  0  0  0  0  0
    6.0410    1.0754    0.0000 C   0  0  0  0  0  0  0  0  0  0  0  0
    6.7433   -0.1453    0.0000 C   0  0  0  0  0  0  0  0  0  0  0  0
   -6.0361   -0.0677    0.0000 C   0  0  0  0  0  0  0  0  0  0  0  0
   -6.7482    1.1626    0.0000 C   0  0  0  0  0  0  0  0  0  0  0  0
    6.7385    1.4873    0.0000 C   0  0  0  0  0  0  0  0  0  0  0  0
    7.4603    0.2470    0.0000 C   0  0  0  0  0  0  0  0  0  0  0  0
   -7.4603    0.7556    0.0000 C   0  0  0  0  0  0  0  0  0  0  0  0
   -6.7385   -0.4795    0.0000 C   0  0  0  0  0  0  0  0  0  0  0  0
   -7.4603   -0.0726    0.0000 C   0  0  0  0  0  0  0  0  0  0  0  0
    0.0000    0.0000    0.0000 H   0  0  0  0  0  0  0  0  0  0  0  0
    0.0000    0.0000    0.0000 H   0  0  0  0  0  0  0  0  0  0  0  0
    0.0000    0.0000    0.0000 H   0  0  0  0  0  0  0  0  0  0  0  0
    0.0000    0.0000    0.0000 H   0  0  0  0  0  0  0  0  0  0  0  0
    0.0000    0.0000    0.0000 H   0  0  0  0  0  0  0  0  0  0  0  0
    0.0000    0.0000    0.0000 H   0  0  0  0  0  0  0  0  0  0  0  0
    0.0000    0.0000    0.0000 H   0  0  0  0  0  0  0  0  0  0  0  0
    0.0000    0.0000    0.0000 H   0  0  0  0  0  0  0  0  0  0  0  0
    0.0000    0.0000    0.0000 H   0  0  0  0  0  0  0  0  0  0  0  0
    0.0000    0.0000    0.0000 H   0  0  0  0  0  0  0  0  0  0  0  0
    0.0000    0.0000    0.0000 H   0  0  0  0  0  0  0  0  0  0  0  0
    0.0000    0.0000    0.0000 H   0  0  0  0  0  0  0  0  0  0  0  0
    0.0000    0.0000    0.0000 H   0  0  0  0  0  0  0  0  0  0  0  0
    0.0000    0.0000    0.0000 H   0  0  0  0  0  0  0  0  0  0  0  0
    0.0000    0.0000    0.0000 H   0  0  0  0  0  0  0  0  0  0  0  0
    0.0000    0.0000    0.0000 H   0  0  0  0  0  0  0  0  0  0  0  0
    0.0000    0.0000    0.0000 H   0  0  0  0  0  0  0  0  0  0  0  0
    0.0000    0.0000    0.0000 H   0  0  0  0  0  0  0  0  0  0  0  0
    0.0000    0.0000    0.0000 H   0  0  0  0  0  0  0  0  0  0  0  0
    0.0000    0.0000    0.0000 H   0  0  0  0  0  0  0  0  0  0  0  0
    0.0000    0.0000    0.0000 H   0  0  0  0  0  0  0  0  0  0  0  0
    0.0000    0.0000    0.0000 H   0  0  0  0  0  0  0  0  0  0  0  0
    0.0000    0.0000    0.0000 H   0  0  0  0  0  0  0  0  0  0  0  0
    0.0000    0.0000    0.0000 H   0  0  0  0  0  0  0  0  0  0  0  0
    0.0000    0.0000    0.0000 H   0  0  0  0  0  0  0  0  0  0  0  0
    0.0000    0.0000    0.0000 H   0  0  0  0  0  0  0  0  0  0  0  0
    0.0000    0.0000    0.0000 H   0  0  0  0  0  0  0  0  0  0  0  0
    0.0000    0.0000    0.0000 H   0  0  0  0  0  0  0  0  0  0  0  0
    0.0000    0.0000    0.0000 H   0  0  0  0  0  0  0  0  0  0  0  0
    0.0000    0.0000    0.0000 H   0  0  0  0  0  0  0  0  0  0  0  0
    0.0000    0.0000    0.0000 H   0  0  0  0  0  0  0  0  0  0  0  0
    0.0000    0.0000    0.0000 H   0  0  0  0  0  0  0  0  0  0  0  0
    0.0000    0.0000    0.0000 H   0  0  0  0  0  0  0  0  0  0  0  0
    0.0000    0.0000    0.0000 H   0  0  0  0  0  0  0  0  0  0  0  0
    0.0000    0.0000    0.0000 H   0  0  0  0  0  0  0  0  0  0  0  0
    0.0000    0.0000    0.0000 H   0  0  0  0  0  0  0  0  0  0  0  0
    0.0000    0.0000    0.0000 H   0  0  0  0  0  0  0  0  0  0  0  0
    0.0000    0.0000    0.0000 H   0  0  0  0  0  0  0  0  0  0  0  0
  2  1  1  0
  3  1  1  0
  4  3  1  0
  5  1  1  0
  6  2  1  0
  7  5  1  0
  4  8  1  6
  5  9  1  6
 10  8  1  0
 12  3  2  0
 13 11  1  0
 14  9  2  0
 15 10  2  0
 16 11  2  0
 17 10  1  0
 18 13  2  0
 19 13  1  0
 20 11  1  0
 21  9  1  0
 22 28  1  0
 23  7  1  0
 24  7  1  0
 25 31  1  0
 26 22  1  0
 27 18  1  0
 28 19  2  0
 29 17  1  0
 30 20  1  0
 31 30  1  0
 32 25  1  0
 33 25  1  0
 34 29  2  0
 35 29  1  0
 36 32  1  0
 37 33  1  0
 38 35  2  0
 39 34  1  0
 40 38  1  0
  6  7  1  0
  4  2  1  0
 40 39  2  0
 22 27  2  0
  2 41  1  6
  4 42  1  0
  5 43  1  0
  8 44  1  0
 17 45  1  0
 17 46  1  0
 18 47  1  0
 19 48  1  0
 21 49  1  0
 23 50  1  0
 23 51  1  0
 23 52  1  0
 24 53  1  0
 24 54  1  0
 24 55  1  0
 26 56  1  0
 26 57  1  0
 27 58  1  0
 28 59  1  0
 30 60  1  0
 30 61  1  0
 31 62  1  0
 31 63  1  0
 32 64  1  0
 32 65  1  0
 33 66  1  0
 33 67  1  0
 34 68  1  0
 35 69  1  0
 36 70  1  0
 36 71  1  0
 36 72  1  0
 37 73  1  0
 37 74  1  0
 37 75  1  0
 38 76  1  0
 39 77  1  0
 40 78  1  0
M  END
>  <ALOGPS_LOGP>  (1) 
1.92

>  <ALOGPS_LOGS>  (1) 
-3.07

>  <ALOGPS_SOLUBILITY>  (1) 
2.85e-01 g/l

>  <DATABASE_ID>  (1) 
DB09320

>  <DATABASE_NAME>  (1) 
drugbank

>  <DRUGBANK_ID>  (1) 
DB09320

>  <DRUG_GROUPS>  (1) 
approved; vet_approved

>  <EXACT_MASS>  (1) 
570.251206134

>  <FORMULA>  (1) 
C29H38N4O6S

>  <GENERIC_NAME>  (1) 
Procaine benzylpenicillin

>  <INCHI_IDENTIFIER>  (1) 
InChI=1S/C16H18N2O4S.C13H20N2O2/c1-16(2)12(15(21)22)18-13(20)11(14(18)23-16)17-10(19)8-9-6-4-3-5-7-9;1-3-15(4-2)9-10-17-13(16)11-5-7-12(14)8-6-11/h3-7,11-12,14H,8H2,1-2H3,(H,17,19)(H,21,22);5-8H,3-4,9-10,14H2,1-2H3/t11-,12+,14-;/m1./s1

>  <INCHI_KEY>  (1) 
WHRVRSCEWKLAHX-LQDWTQKMSA-N

>  <JCHEM_ACCEPTOR_COUNT>  (1) 
4

>  <JCHEM_ATOM_COUNT>  (1) 
78

>  <JCHEM_AVERAGE_POLARIZABILITY>  (1) 
33.49733985308615

>  <JCHEM_BIOAVAILABILITY>  (1) 
0

>  <JCHEM_DONOR_COUNT>  (1) 
2

>  <JCHEM_FORMAL_CHARGE>  (1) 
0

>  <JCHEM_GHOSE_FILTER>  (1) 
0

>  <JCHEM_IUPAC>  (1) 
(2S,5R,6R)-3,3-dimethyl-7-oxo-6-(2-phenylacetamido)-4-thia-1-azabicyclo[3.2.0]heptane-2-carboxylic acid; 2-(diethylamino)ethyl 4-aminobenzoate

>  <JCHEM_LOGP>  (1) 
1.0806779529999997

>  <JCHEM_MDDR_LIKE_RULE>  (1) 
1

>  <JCHEM_NUMBER_OF_RINGS>  (1) 
4

>  <JCHEM_PHYSIOLOGICAL_CHARGE>  (1) 
-1

>  <JCHEM_PKA>  (1) 
12.119397282151532

>  <JCHEM_PKA_STRONGEST_ACIDIC>  (1) 
3.529281016771107

>  <JCHEM_PKA_STRONGEST_BASIC>  (1) 
-2.7642193970852755

>  <JCHEM_POLAR_SURFACE_AREA>  (1) 
86.71000000000001

>  <JCHEM_REFRACTIVITY>  (1) 
84.52780000000003

>  <JCHEM_ROTATABLE_BOND_COUNT>  (1) 
11

>  <JCHEM_RULE_OF_FIVE>  (1) 
0

>  <JCHEM_TRADITIONAL_IUPAC>  (1) 
penicillin G; procaine

>  <JCHEM_VEBER_RULE>  (1) 
0

>  <MOLECULAR_WEIGHT>  (1) 
570.71

>  <PRODUCTS>  (1) 
Ayercillin Suspension; Bicillin A-P Injection Pws; Bicillin C-R 900/300; Bicillin CR; Penicillin G Procaine

>  <SMILES>  (1) 
CCN(CC)CCOC(=O)C1=CC=C(N)C=C1.[H][C@]12SC(C)(C)[C@@H](N1C(=O)[C@H]2NC(=O)CC1=CC=CC=C1)C(O)=O

>  <SYNONYMS>  (1) 
Penicillin G procaine

$$$$
