
     RDKit          2D

 38 38  0  0  0  0  0  0  0  0999 V2000
    0.7440    2.2661    0.0000 Hg  0  0  0  0  0  0  0  0  0  0  0  0
   -0.0030   -1.4264    0.0000 O   0  0  0  0  0  0  0  0  0  0  0  0
   -2.1334   -0.1913    0.0000 O   0  0  0  0  0  0  0  0  0  0  0  0
    0.7317    0.6174    0.0000 O   0  0  0  0  0  0  0  0  0  0  0  0
    1.4171   -0.5927    0.0000 O   0  0  0  0  0  0  0  0  0  0  0  0
    2.1396   -1.8216    0.0000 O   0  0  0  0  0  0  0  0  0  0  0  0
    0.7502    3.0874    0.0000 O   0  0  0  0  0  0  0  0  0  0  0  0
   -0.7069   -0.2038    0.0000 N   0  0  0  0  0  0  0  0  0  0  0  0
   -1.4294   -1.4325    0.0000 C   0  0  0  0  0  0  0  0  0  0  0  0
   -0.7132   -1.8401    0.0000 C   0  0  0  0  0  0  0  0  0  0  0  0
   -1.4232   -0.6112    0.0000 C   0  0  0  0  0  0  0  0  0  0  0  0
   -2.1396   -1.8524    0.0000 C   0  0  0  0  0  0  0  0  0  0  0  0
   -0.7007   -2.6675    0.0000 C   0  0  0  0  0  0  0  0  0  0  0  0
   -2.1396   -2.6798    0.0000 C   0  0  0  0  0  0  0  0  0  0  0  0
   -1.4171   -3.0874    0.0000 C   0  0  0  0  0  0  0  0  0  0  0  0
   -0.7007    0.6236    0.0000 C   0  0  0  0  0  0  0  0  0  0  0  0
    0.0215    1.0373    0.0000 C   0  0  0  0  0  0  0  0  0  0  0  0
    0.7132   -1.8338    0.0000 C   0  0  0  0  0  0  0  0  0  0  0  0
    1.4233   -1.4140    0.0000 C   0  0  0  0  0  0  0  0  0  0  0  0
   -0.0154    1.8585    0.0000 C   0  0  0  0  0  0  0  0  0  0  0  0
    1.4480    1.0188    0.0000 C   0  0  0  0  0  0  0  0  0  0  0  0
    0.0000    0.0000    0.0000 H   0  0  0  0  0  0  0  0  0  0  0  0
    0.0000    0.0000    0.0000 H   0  0  0  0  0  0  0  0  0  0  0  0
    0.0000    0.0000    0.0000 H   0  0  0  0  0  0  0  0  0  0  0  0
    0.0000    0.0000    0.0000 H   0  0  0  0  0  0  0  0  0  0  0  0
    0.0000    0.0000    0.0000 H   0  0  0  0  0  0  0  0  0  0  0  0
    0.0000    0.0000    0.0000 H   0  0  0  0  0  0  0  0  0  0  0  0
    0.0000    0.0000    0.0000 H   0  0  0  0  0  0  0  0  0  0  0  0
    0.0000    0.0000    0.0000 H   0  0  0  0  0  0  0  0  0  0  0  0
    0.0000    0.0000    0.0000 H   0  0  0  0  0  0  0  0  0  0  0  0
    0.0000    0.0000    0.0000 H   0  0  0  0  0  0  0  0  0  0  0  0
    0.0000    0.0000    0.0000 H   0  0  0  0  0  0  0  0  0  0  0  0
    0.0000    0.0000    0.0000 H   0  0  0  0  0  0  0  0  0  0  0  0
    0.0000    0.0000    0.0000 H   0  0  0  0  0  0  0  0  0  0  0  0
    0.0000    0.0000    0.0000 H   0  0  0  0  0  0  0  0  0  0  0  0
    0.0000    0.0000    0.0000 H   0  0  0  0  0  0  0  0  0  0  0  0
    0.0000    0.0000    0.0000 H   0  0  0  0  0  0  0  0  0  0  0  0
    0.0000    0.0000    0.0000 H   0  0  0  0  0  0  0  0  0  0  0  0
  1  7  1  0
  1 20  1  0
  2 10  1  0
  2 18  1  0
  3 11  2  0
  4 17  1  0
  4 21  1  0
  5 19  2  0
  6 19  1  0
  8 11  1  0
  8 16  1  0
  9 10  2  0
  9 11  1  0
  9 12  1  0
 10 13  1  0
 12 14  2  0
 13 15  2  0
 14 15  1  0
 16 17  1  0
 17 20  1  0
 18 19  1  0
  6 22  1  0
  7 23  1  0
  8 24  1  0
 12 25  1  0
 13 26  1  0
 14 27  1  0
 15 28  1  0
 16 29  1  0
 16 30  1  0
 17 31  1  0
 18 32  1  0
 18 33  1  0
 20 34  1  0
 20 35  1  0
 21 36  1  0
 21 37  1  0
 21 38  1  0
M  END
>  <ALOGPS_LOGP>  (1) 
-0.07

>  <ALOGPS_LOGS>  (1) 
-1.69

>  <ALOGPS_SOLUBILITY>  (1) 
9.90e+00 g/l

>  <DATABASE_ID>  (1) 
DB09338

>  <DATABASE_NAME>  (1) 
drugbank

>  <DRUGBANK_ID>  (1) 
DB09338

>  <DRUG_GROUPS>  (1) 
approved

>  <EXACT_MASS>  (1) 
485.07623

>  <FORMULA>  (1) 
C13H17HgNO6

>  <GENERIC_NAME>  (1) 
Mersalyl

>  <INCHI_IDENTIFIER>  (1) 
InChI=1S/C13H16NO5.Hg.H2O/c1-9(18-2)7-14-13(17)10-5-3-4-6-11(10)19-8-12(15)16;;/h3-6,9H,1,7-8H2,2H3,(H,14,17)(H,15,16);;1H2/q;+1;/p-1

>  <INCHI_KEY>  (1) 
HQRSUIDICNOLPX-UHFFFAOYSA-M

>  <JCHEM_ACCEPTOR_COUNT>  (1) 
6

>  <JCHEM_ATOM_COUNT>  (1) 
38

>  <JCHEM_AVERAGE_POLARIZABILITY>  (1) 
30.57628166568179

>  <JCHEM_BIOAVAILABILITY>  (1) 
1

>  <JCHEM_DONOR_COUNT>  (1) 
3

>  <JCHEM_FORMAL_CHARGE>  (1) 
0

>  <JCHEM_GHOSE_FILTER>  (1) 
0

>  <JCHEM_IUPAC>  (1) 
2-(2-{[3-(hydroxymercurio)-2-methoxypropyl]carbamoyl}phenoxy)acetic acid

>  <JCHEM_LOGP>  (1) 
-0.7384000000000001

>  <JCHEM_MDDR_LIKE_RULE>  (1) 
0

>  <JCHEM_NUMBER_OF_RINGS>  (1) 
1

>  <JCHEM_PHYSIOLOGICAL_CHARGE>  (1) 
-1

>  <JCHEM_PKA>  (1) 
14.114327432542591

>  <JCHEM_PKA_STRONGEST_ACIDIC>  (1) 
3.243633084197571

>  <JCHEM_PKA_STRONGEST_BASIC>  (1) 
-1.26044946378946

>  <JCHEM_POLAR_SURFACE_AREA>  (1) 
105.09

>  <JCHEM_REFRACTIVITY>  (1) 
69.75290000000001

>  <JCHEM_ROTATABLE_BOND_COUNT>  (1) 
9

>  <JCHEM_RULE_OF_FIVE>  (1) 
1

>  <JCHEM_TRADITIONAL_IUPAC>  (1) 
mersalyl

>  <JCHEM_VEBER_RULE>  (1) 
0

>  <MOLECULAR_WEIGHT>  (1) 
483.87

>  <SALTS>  (1) 
Mersalyl sodium

>  <SMILES>  (1) 
COC(CNC(=O)C1=CC=CC=C1OCC(O)=O)C[Hg]O

>  <SYNONYMS>  (1) 
Mersal

$$$$
