
     RDKit          2D

 68 71  0  0  0  0  0  0  0  0999 V2000
    0.0201    1.2277    0.0000 O   0  0  0  0  0  0  0  0  0  0  0  0
   -4.3168    1.2277    0.0000 O   0  0  0  0  0  0  0  0  0  0  0  0
   -0.7345    0.0201    0.0000 O   0  0  0  0  0  0  0  0  0  0  0  0
   -3.5721    0.0201    0.0000 O   0  0  0  0  0  0  0  0  0  0  0  0
   -0.7345   -2.4854    0.0000 O   0  0  0  0  0  0  0  0  0  0  0  0
    0.1911   -1.0263    0.0000 O   0  0  0  0  0  0  0  0  0  0  0  0
   -2.1534    2.4854    0.0000 N   0  0  0  0  0  0  0  0  0  0  0  0
   -0.7345   -1.6502    0.0000 N   0  0  0  0  0  0  0  0  0  0  0  0
    2.1534    0.8151    0.0000 N   0  0  0  0  0  0  0  0  0  0  0  0
   -2.1534    0.8151    0.0000 C   0  0  0  0  0  0  0  0  0  0  0  0
   -1.4389    1.2277    0.0000 C   0  0  0  0  0  0  0  0  0  0  0  0
   -2.8577    1.2277    0.0000 C   0  0  0  0  0  0  0  0  0  0  0  0
   -2.1534    0.0201    0.0000 C   0  0  0  0  0  0  0  0  0  0  0  0
   -1.4389    2.0628    0.0000 C   0  0  0  0  0  0  0  0  0  0  0  0
   -2.8577    2.0628    0.0000 C   0  0  0  0  0  0  0  0  0  0  0  0
   -0.7345    0.8151    0.0000 C   0  0  0  0  0  0  0  0  0  0  0  0
   -3.5721    0.8151    0.0000 C   0  0  0  0  0  0  0  0  0  0  0  0
   -1.4389   -0.4024    0.0000 C   0  0  0  0  0  0  0  0  0  0  0  0
   -2.8577   -0.4024    0.0000 C   0  0  0  0  0  0  0  0  0  0  0  0
   -1.4389   -1.2377    0.0000 C   0  0  0  0  0  0  0  0  0  0  0  0
   -0.7345    2.4854    0.0000 C   0  0  0  0  0  0  0  0  0  0  0  0
    0.7345    0.8151    0.0000 C   0  0  0  0  0  0  0  0  0  0  0  0
   -3.5721    2.4854    0.0000 C   0  0  0  0  0  0  0  0  0  0  0  0
   -2.8577   -1.2377    0.0000 C   0  0  0  0  0  0  0  0  0  0  0  0
   -2.1534   -1.6502    0.0000 C   0  0  0  0  0  0  0  0  0  0  0  0
    1.4389    1.2277    0.0000 C   0  0  0  0  0  0  0  0  0  0  0  0
    0.7345    0.0201    0.0000 C   0  0  0  0  0  0  0  0  0  0  0  0
    1.4389   -0.4024    0.0000 C   0  0  0  0  0  0  0  0  0  0  0  0
    2.1534    0.0201    0.0000 C   0  0  0  0  0  0  0  0  0  0  0  0
   -5.0313    0.8151    0.0000 C   0  0  0  0  0  0  0  0  0  0  0  0
    2.8577    1.2277    0.0000 C   0  0  0  0  0  0  0  0  0  0  0  0
    3.6124    0.8151    0.0000 C   0  0  0  0  0  0  0  0  0  0  0  0
    3.6124    0.0201    0.0000 C   0  0  0  0  0  0  0  0  0  0  0  0
    4.3168    1.2277    0.0000 C   0  0  0  0  0  0  0  0  0  0  0  0
    4.3168   -0.4024    0.0000 C   0  0  0  0  0  0  0  0  0  0  0  0
    5.0313    0.8151    0.0000 C   0  0  0  0  0  0  0  0  0  0  0  0
    5.0313    0.0201    0.0000 C   0  0  0  0  0  0  0  0  0  0  0  0
    0.0000    0.0000    0.0000 H   0  0  0  0  0  0  0  0  0  0  0  0
    0.0000    0.0000    0.0000 H   0  0  0  0  0  0  0  0  0  0  0  0
    0.0000    0.0000    0.0000 H   0  0  0  0  0  0  0  0  0  0  0  0
    0.0000    0.0000    0.0000 H   0  0  0  0  0  0  0  0  0  0  0  0
    0.0000    0.0000    0.0000 H   0  0  0  0  0  0  0  0  0  0  0  0
    0.0000    0.0000    0.0000 H   0  0  0  0  0  0  0  0  0  0  0  0
    0.0000    0.0000    0.0000 H   0  0  0  0  0  0  0  0  0  0  0  0
    0.0000    0.0000    0.0000 H   0  0  0  0  0  0  0  0  0  0  0  0
    0.0000    0.0000    0.0000 H   0  0  0  0  0  0  0  0  0  0  0  0
    0.0000    0.0000    0.0000 H   0  0  0  0  0  0  0  0  0  0  0  0
    0.0000    0.0000    0.0000 H   0  0  0  0  0  0  0  0  0  0  0  0
    0.0000    0.0000    0.0000 H   0  0  0  0  0  0  0  0  0  0  0  0
    0.0000    0.0000    0.0000 H   0  0  0  0  0  0  0  0  0  0  0  0
    0.0000    0.0000    0.0000 H   0  0  0  0  0  0  0  0  0  0  0  0
    0.0000    0.0000    0.0000 H   0  0  0  0  0  0  0  0  0  0  0  0
    0.0000    0.0000    0.0000 H   0  0  0  0  0  0  0  0  0  0  0  0
    0.0000    0.0000    0.0000 H   0  0  0  0  0  0  0  0  0  0  0  0
    0.0000    0.0000    0.0000 H   0  0  0  0  0  0  0  0  0  0  0  0
    0.0000    0.0000    0.0000 H   0  0  0  0  0  0  0  0  0  0  0  0
    0.0000    0.0000    0.0000 H   0  0  0  0  0  0  0  0  0  0  0  0
    0.0000    0.0000    0.0000 H   0  0  0  0  0  0  0  0  0  0  0  0
    0.0000    0.0000    0.0000 H   0  0  0  0  0  0  0  0  0  0  0  0
    0.0000    0.0000    0.0000 H   0  0  0  0  0  0  0  0  0  0  0  0
    0.0000    0.0000    0.0000 H   0  0  0  0  0  0  0  0  0  0  0  0
    0.0000    0.0000    0.0000 H   0  0  0  0  0  0  0  0  0  0  0  0
    0.0000    0.0000    0.0000 H   0  0  0  0  0  0  0  0  0  0  0  0
    0.0000    0.0000    0.0000 H   0  0  0  0  0  0  0  0  0  0  0  0
    0.0000    0.0000    0.0000 H   0  0  0  0  0  0  0  0  0  0  0  0
    0.0000    0.0000    0.0000 H   0  0  0  0  0  0  0  0  0  0  0  0
    0.0000    0.0000    0.0000 H   0  0  0  0  0  0  0  0  0  0  0  0
    0.0000    0.0000    0.0000 H   0  0  0  0  0  0  0  0  0  0  0  0
  1 16  1  0
 22  1  1  1
  2 17  1  0
  2 30  1  0
  3 16  2  0
  4 17  2  0
  5  8  1  0
  6  8  2  0
  7 14  1  0
  7 15  1  0
  8 20  1  0
  9 26  1  0
  9 29  1  0
  9 31  1  0
 10 11  1  0
 10 12  1  0
 10 13  1  6
 11 14  2  0
 11 16  1  0
 12 15  2  0
 12 17  1  0
 13 18  2  0
 13 19  1  0
 14 21  1  0
 15 23  1  0
 18 20  1  0
 19 24  2  0
 20 25  2  0
 22 26  1  0
 22 27  1  0
 24 25  1  0
 27 28  1  0
 28 29  1  0
 31 32  1  0
 32 33  2  0
 32 34  1  0
 33 35  1  0
 34 36  2  0
 35 37  2  0
 36 37  1  0
  7 38  1  0
 10 39  1  0
 18 40  1  0
 19 41  1  0
 21 42  1  0
 21 43  1  0
 21 44  1  0
 22 45  1  0
 23 46  1  0
 23 47  1  0
 23 48  1  0
 24 49  1  0
 25 50  1  0
 26 51  1  0
 26 52  1  0
 27 53  1  0
 27 54  1  0
 28 55  1  0
 28 56  1  0
 29 57  1  0
 29 58  1  0
 30 59  1  0
 30 60  1  0
 30 61  1  0
 31 62  1  0
 31 63  1  0
 33 64  1  0
 34 65  1  0
 35 66  1  0
 36 67  1  0
 37 68  1  0
M  CHG  2   5  -1   8   1
M  END
>  <ALOGPS_LOGP>  (1) 
4.28

>  <ALOGPS_LOGS>  (1) 
-5.32

>  <ALOGPS_SOLUBILITY>  (1) 
2.43e-03 g/l

>  <DATABASE_ID>  (1) 
DB09231

>  <DATABASE_NAME>  (1) 
drugbank

>  <DRUGBANK_ID>  (1) 
DB09231

>  <DRUG_GROUPS>  (1) 
approved; investigational

>  <EXACT_MASS>  (1) 
505.22128573

>  <FORMULA>  (1) 
C28H31N3O6

>  <GENERIC_NAME>  (1) 
Benidipine

>  <INCHI_IDENTIFIER>  (1) 
InChI=1S/C28H31N3O6/c1-18-24(27(32)36-3)26(21-11-7-12-22(15-21)31(34)35)25(19(2)29-18)28(33)37-23-13-8-14-30(17-23)16-20-9-5-4-6-10-20/h4-7,9-12,15,23,26,29H,8,13-14,16-17H2,1-3H3/t23-,26-/m1/s1

>  <INCHI_KEY>  (1) 
QZVNQOLPLYWLHQ-ZEQKJWHPSA-N

>  <INTERNATIONAL_BRANDS>  (1) 
Coniel

>  <JCHEM_ACCEPTOR_COUNT>  (1) 
6

>  <JCHEM_ATOM_COUNT>  (1) 
68

>  <JCHEM_AVERAGE_POLARIZABILITY>  (1) 
53.52669330817152

>  <JCHEM_BIOAVAILABILITY>  (1) 
1

>  <JCHEM_DONOR_COUNT>  (1) 
1

>  <JCHEM_FORMAL_CHARGE>  (1) 
0

>  <JCHEM_GHOSE_FILTER>  (1) 
0

>  <JCHEM_IUPAC>  (1) 
3-(3R)-1-benzylpiperidin-3-yl 5-methyl (4R)-2,6-dimethyl-4-(3-nitrophenyl)-1,4-dihydropyridine-3,5-dicarboxylate

>  <JCHEM_LOGP>  (1) 
4.024176458000001

>  <JCHEM_MDDR_LIKE_RULE>  (1) 
1

>  <JCHEM_NUMBER_OF_RINGS>  (1) 
4

>  <JCHEM_PHYSIOLOGICAL_CHARGE>  (1) 
1

>  <JCHEM_PKA_STRONGEST_ACIDIC>  (1) 
19.466365549373975

>  <JCHEM_PKA_STRONGEST_BASIC>  (1) 
7.885497723231998

>  <JCHEM_POLAR_SURFACE_AREA>  (1) 
111.00999999999999

>  <JCHEM_REFRACTIVITY>  (1) 
141.00339999999997

>  <JCHEM_ROTATABLE_BOND_COUNT>  (1) 
9

>  <JCHEM_RULE_OF_FIVE>  (1) 
0

>  <JCHEM_TRADITIONAL_IUPAC>  (1) 
benidipino

>  <JCHEM_VEBER_RULE>  (1) 
0

>  <MOLECULAR_WEIGHT>  (1) 
505.571

>  <SALTS>  (1) 
Benidipine hydrochloride

>  <SMILES>  (1) 
COC(=O)C1=C(C)NC(C)=C([C@@H]1C1=CC=CC(=C1)[N+]([O-])=O)C(=O)O[C@@H]1CCCN(CC2=CC=CC=C2)C1

$$$$
