977
     RDKit          2D

  2  1  0  0  0  0  0  0  0  0999 V2000
    1.6500    0.0000    0.0000 O   0  0  0  0  0  0  0  0  0  0  0  0
    2.4750    0.0000    0.0000 O   0  0  0  0  0  0  0  0  0  0  0  0
  1  2  2  0
M  END
>  <DATABASE_ID>  (1) 
DB09140

>  <DATABASE_NAME>  (1) 
drugbank

>  <DRUGBANK_ID>  (1) 
DB09140

>  <DRUG_GROUPS>  (1) 
approved; vet_approved

>  <EXACT_MASS>  (1) 
31.989829244

>  <FORMULA>  (1) 
O2

>  <GENERIC_NAME>  (1) 
Oxygen

>  <INCHI_IDENTIFIER>  (1) 
InChI=1S/O2/c1-2

>  <INCHI_KEY>  (1) 
MYMOFIZGZYHOMD-UHFFFAOYSA-N

>  <JCHEM_ACCEPTOR_COUNT>  (1) 
2

>  <JCHEM_AVERAGE_POLARIZABILITY>  (1) 
1.5282551454994047

>  <JCHEM_BIOAVAILABILITY>  (1) 
1

>  <JCHEM_DONOR_COUNT>  (1) 
0

>  <JCHEM_FORMAL_CHARGE>  (1) 
0

>  <JCHEM_GHOSE_FILTER>  (1) 
0

>  <JCHEM_IUPAC>  (1) 
oxidanone

>  <JCHEM_LOGP>  (1) 
-0.27723172999999995

>  <JCHEM_MDDR_LIKE_RULE>  (1) 
0

>  <JCHEM_NUMBER_OF_RINGS>  (1) 
0

>  <JCHEM_PHYSIOLOGICAL_CHARGE>  (1) 
0

>  <JCHEM_POLAR_SURFACE_AREA>  (1) 
34.14

>  <JCHEM_REFRACTIVITY>  (1) 
2.8858

>  <JCHEM_ROTATABLE_BOND_COUNT>  (1) 
0

>  <JCHEM_RULE_OF_FIVE>  (1) 
1

>  <JCHEM_TRADITIONAL_IUPAC>  (1) 
singlet oxygen

>  <JCHEM_VEBER_RULE>  (1) 
1

>  <MOLECULAR_WEIGHT>  (1) 
31.9988

>  <PRODUCTS>  (1) 
Air; Air Compressed; Air Compressed Medical Air; Air USP; Air, Compressed; Alnox Gas; Carbogen; Carbon Dioxide 1% W Oxygen; Carbon Dioxide 12.1% W Oxygen; Carbon Dioxide 23.1% W Oxygen; Carbon Dioxide 7.1% W Oxygen; Carbon Dioxide In Oxygen Mixture; Carbon Dioxide Mixture; Carbon Dioxide Oxygen Mix; Carbon Dioxide Oxygen Mixture; Carbon Dioxide Oxygen Mixture 5/95; Carbon Dioxide USP, Oxygen USP Medical G.M.; Carbon Dioxide and Oxygen Mixture, Compressed, Oxidizing, N.O.S.; Carbon Dioxide-Air Mixture; Carbon Dioxide-Oxygen Mixture; Carbon Dioxide-Oxygen-Nitrogen Mixture; Carbon Dioxide/Oxygen Mix; Carbon Monox, Helium, Oxygen, Nitrogen L.D.M.; Co-HE-O2-N2 Mixture; Co-NE-O2-N2 Mixture; Compressed Gas N.O.S.; Compressed Gas Oxidizing, N.O.S.; Compressed Gas Oxidizing,N.O.S.; Compressed Gas, N.O.S.; Compressed Gas, Oxidizing, N.O.S.; Compressed Oxidizing; Compressed, N.O.S.; EZ-OX Plus; EZ-Ox; EZ-Ox Plus; Emergency Oxygen Supply 99.5%; Entonox; Ez-OX; Ez-OX Plus; Focus Medical Oxygen; Gaseous Inh Mixture 20% Oxygen 80% Helium; Heliox; Heliox 70/30; Helium Oxygen; Helium Oxygen Mix; Helium Oxygen Mix 70/30; Helium Oxygen Mix 80/20; Helium Oxygen Mixture; Helium Oxygen Nitrogen mixture; Helium Oxygen mixture; Helium-Oxygen-Nitrogen Mixture; Helium-oxygen Mix Gas; Helium-oxygen Mixture; Helium/Oxygen Mixture 70/30; Helium/Oxygen Mixture 80/20; Hyperbaric Chamber Mix; Liqui-med Analgesic Gas; Liquid Oxygen; Lung Diffusion Test Mix No Ne Co; Lung Diffusion Test Mix Nohco; Lung Diffusion Test Mixture; Lung Diffusion Test Mixture Gas; Madacylinder 99.5%; Medical Air; Medical Air Compressed; Medical Air USP; Medical Oxygen; Medical Oxygen 100%; Nitrogen Oxygen Mix; Nitrous Oxide In Oxygen; Oxyfit Gas 99.5%; Oxygen; Oxygen    (family 1st Medical); Oxygen (compressed); Oxygen 100%; Oxygen 4c21e554-d402-480d-896d-8185c05c7863; Oxygen 64889-0001; Oxygen 99%; Oxygen 99% USP; Oxygen 99.0%; Oxygen 99.95%; Oxygen Carbon Dioxide Mix; Oxygen Carbon Dioxide Mixture; Oxygen Compressed; Oxygen Compressed Gas; Oxygen Compressed U.S.P.; Oxygen Gas 99%; Oxygen Helium Mixture; Oxygen Helium Mixture 20/80; Oxygen Helium Mixture 30/70; Oxygen Helium Mixture 40/60; Oxygen In Helium Mix; Oxygen In Helium Mixture; Oxygen Nitrogen Mixture; Oxygen Refrigerated Liquid; Oxygen Size 400; Oxygen Size B; Oxygen Size C; Oxygen Size D; Oxygen Size E; Oxygen Size F; Oxygen Size H; Oxygen Size M; Oxygen Size T; Oxygen U.S.P.; Oxygen USP; Oxygen USP - Gas 100%; Oxygen USP 99%; Oxygen USP, Helium USP, Medical Gas Mixture; Oxygen USP, Nitrogen Nf, Medical Gas Mixture; Oxygen W Nitrogen; Oxygen, Compressed; Oxygen, Compressed U.S.P.; Oxygen, Refrigerated; Oxygen, Refrigerated Liquid; Oxygen, USP; Oxygen-Carbon Dioxide Mixture; Oxygen-Helium Mixture; Oxygen-Nitrogen Mixture; Oxygen-refrigerated Liquid; Oxygene; Oxygene - Gas Inh; Prairie Oxygen USP; Southern Medical Oxygen, Compressed; Tri-Med Medical

>  <SMILES>  (1) 
O=O

>  <SYNONYMS>  (1) 
Dioxygen; Molecular oxygen; Oxygen USP; Pure oxygen

$$$$
