
     RDKit          2D

107111  0  0  1  0  0  0  0  0999 V2000
   11.4224   -5.5160    0.0000 C   0  0  0  0  0  0  0  0  0  0  0  0
   11.4224   -6.3410    0.0000 C   0  0  0  0  0  0  0  0  0  0  0  0
   12.1236   -5.1035    0.0000 C   0  0  0  0  0  0  0  0  0  0  0  0
   10.7211   -5.1035    0.0000 N   0  0  0  0  0  0  0  0  0  0  0  0
   12.8661   -5.5160    0.0000 C   0  0  0  0  0  0  0  0  0  0  0  0
   10.0199   -5.5160    0.0000 C   0  0  0  0  0  0  0  0  0  0  0  0
   13.5674   -5.1035    0.0000 C   0  0  0  0  0  0  0  0  0  0  0  0
    9.2774   -5.1035    0.0000 C   0  0  0  0  0  0  0  0  0  0  0  0
   10.0199   -6.3410    0.0000 O   0  0  0  0  0  0  0  0  0  0  0  0
   13.5674   -4.2785    0.0000 C   0  0  0  0  0  0  0  0  0  0  0  0
   14.2687   -5.4748    0.0000 N   0  0  0  0  0  0  0  0  0  0  0  0
    8.5761   -5.5160    0.0000 N   0  0  0  0  0  0  0  0  0  0  0  0
   12.8248   -3.8660    0.0000 C   0  0  0  0  0  0  0  0  0  0  0  0
   14.9699   -5.1035    0.0000 C   0  0  0  0  0  0  0  0  0  0  0  0
    7.8749   -5.1035    0.0000 C   0  0  0  0  0  0  0  0  0  0  0  0
   12.8248   -3.0410    0.0000 C   0  0  0  0  0  0  0  0  0  0  0  0
   12.1236   -4.2785    0.0000 C   0  0  0  0  0  0  0  0  0  0  0  0
   15.7124   -5.4748    0.0000 O   0  0  0  0  0  0  0  0  0  0  0  0
   14.9699   -4.2785    0.0000 O   0  0  0  0  0  0  0  0  0  0  0  0
    7.1736   -5.5160    0.0000 N   0  0  0  0  0  0  0  0  0  0  0  0
    7.8749   -4.2785    0.0000 O   0  0  0  0  0  0  0  0  0  0  0  0
   12.1236   -2.6285    0.0000 C   0  0  0  0  0  0  0  0  0  0  0  0
   11.4224   -3.8660    0.0000 C   0  0  0  0  0  0  0  0  0  0  0  0
   16.4137   -5.0622    0.0000 C   0  0  0  0  0  0  0  0  0  0  0  0
    6.4311   -5.1035    0.0000 C   0  0  0  0  0  0  0  0  0  0  0  0
    7.1736   -6.3410    0.0000 C   0  0  0  0  0  0  0  0  0  0  0  0
   11.4224   -3.0410    0.0000 C   0  0  0  0  0  0  0  0  0  0  0  0
   17.1149   -5.4748    0.0000 C   0  0  0  0  0  0  0  0  0  0  0  0
    5.7298   -5.5160    0.0000 C   0  0  0  0  0  0  0  0  0  0  0  0
   17.1149   -6.2997    0.0000 C   0  0  0  0  0  0  0  0  0  0  0  0
   17.8987   -5.2272    0.0000 S   0  0  0  0  0  0  0  0  0  0  0  0
    4.9461   -5.3098    0.0000 N   0  0  0  0  0  0  0  0  0  0  0  0
    5.7298   -6.3410    0.0000 C   0  0  0  0  0  0  0  0  0  0  0  0
   17.8987   -6.5473    0.0000 N   0  0  0  0  0  0  0  0  0  0  0  0
   18.3937   -5.8873    0.0000 C   0  0  0  0  0  0  0  0  0  0  0  0
    4.4923   -6.0110    0.0000 C   0  0  0  0  0  0  0  0  0  0  0  0
    4.9873   -6.6298    0.0000 S   0  0  0  0  0  0  0  0  0  0  0  0
    3.6673   -6.0110    0.0000 C   0  0  0  0  0  0  0  0  0  0  0  0
    3.2136   -5.3098    0.0000 C   0  0  0  0  0  0  0  0  0  0  0  0
    3.2961   -6.7123    0.0000 C   0  0  0  0  0  0  0  0  0  0  0  0
   12.1369   -6.7535    0.0000 C   0  0  0  0  0  0  0  0  0  0  0  0
   12.1369   -7.5784    0.0000 C   0  0  0  0  0  0  0  0  0  0  0  0
   12.8514   -7.9909    0.0000 C   0  0  0  0  0  0  0  0  0  0  0  0
   13.5659   -7.5784    0.0000 C   0  0  0  0  0  0  0  0  0  0  0  0
   13.5659   -6.7535    0.0000 C   0  0  0  0  0  0  0  0  0  0  0  0
   12.8514   -6.3410    0.0000 C   0  0  0  0  0  0  0  0  0  0  0  0
    9.2673   -4.2786    0.0000 C   0  0  0  0  0  0  0  0  0  0  0  0
    8.5555   -3.8792    0.0000 C   0  0  0  0  0  0  0  0  0  0  0  0
    8.5555   -3.0541    0.0000 N   0  0  0  0  0  0  0  0  0  0  0  0
    9.2598   -2.6472    0.0000 C   0  0  0  0  0  0  0  0  0  0  0  0
    9.2594   -1.8221    0.0000 C   0  0  0  0  0  0  0  0  0  0  0  0
    8.5449   -1.4099    0.0000 O   0  0  0  0  0  0  0  0  0  0  0  0
    7.8405   -1.8168    0.0000 C   0  0  0  0  0  0  0  0  0  0  0  0
    7.8408   -2.6419    0.0000 C   0  0  0  0  0  0  0  0  0  0  0  0
    0.0000    0.0000    0.0000 H   0  0  0  0  0  0  0  0  0  0  0  0
    0.0000    0.0000    0.0000 H   0  0  0  0  0  0  0  0  0  0  0  0
    0.0000    0.0000    0.0000 H   0  0  0  0  0  0  0  0  0  0  0  0
    0.0000    0.0000    0.0000 H   0  0  0  0  0  0  0  0  0  0  0  0
    0.0000    0.0000    0.0000 H   0  0  0  0  0  0  0  0  0  0  0  0
    0.0000    0.0000    0.0000 H   0  0  0  0  0  0  0  0  0  0  0  0
    0.0000    0.0000    0.0000 H   0  0  0  0  0  0  0  0  0  0  0  0
    0.0000    0.0000    0.0000 H   0  0  0  0  0  0  0  0  0  0  0  0
    0.0000    0.0000    0.0000 H   0  0  0  0  0  0  0  0  0  0  0  0
    0.0000    0.0000    0.0000 H   0  0  0  0  0  0  0  0  0  0  0  0
    0.0000    0.0000    0.0000 H   0  0  0  0  0  0  0  0  0  0  0  0
    0.0000    0.0000    0.0000 H   0  0  0  0  0  0  0  0  0  0  0  0
    0.0000    0.0000    0.0000 H   0  0  0  0  0  0  0  0  0  0  0  0
    0.0000    0.0000    0.0000 H   0  0  0  0  0  0  0  0  0  0  0  0
    0.0000    0.0000    0.0000 H   0  0  0  0  0  0  0  0  0  0  0  0
    0.0000    0.0000    0.0000 H   0  0  0  0  0  0  0  0  0  0  0  0
    0.0000    0.0000    0.0000 H   0  0  0  0  0  0  0  0  0  0  0  0
    0.0000    0.0000    0.0000 H   0  0  0  0  0  0  0  0  0  0  0  0
    0.0000    0.0000    0.0000 H   0  0  0  0  0  0  0  0  0  0  0  0
    0.0000    0.0000    0.0000 H   0  0  0  0  0  0  0  0  0  0  0  0
    0.0000    0.0000    0.0000 H   0  0  0  0  0  0  0  0  0  0  0  0
    0.0000    0.0000    0.0000 H   0  0  0  0  0  0  0  0  0  0  0  0
    0.0000    0.0000    0.0000 H   0  0  0  0  0  0  0  0  0  0  0  0
    0.0000    0.0000    0.0000 H   0  0  0  0  0  0  0  0  0  0  0  0
    0.0000    0.0000    0.0000 H   0  0  0  0  0  0  0  0  0  0  0  0
    0.0000    0.0000    0.0000 H   0  0  0  0  0  0  0  0  0  0  0  0
    0.0000    0.0000    0.0000 H   0  0  0  0  0  0  0  0  0  0  0  0
    0.0000    0.0000    0.0000 H   0  0  0  0  0  0  0  0  0  0  0  0
    0.0000    0.0000    0.0000 H   0  0  0  0  0  0  0  0  0  0  0  0
    0.0000    0.0000    0.0000 H   0  0  0  0  0  0  0  0  0  0  0  0
    0.0000    0.0000    0.0000 H   0  0  0  0  0  0  0  0  0  0  0  0
    0.0000    0.0000    0.0000 H   0  0  0  0  0  0  0  0  0  0  0  0
    0.0000    0.0000    0.0000 H   0  0  0  0  0  0  0  0  0  0  0  0
    0.0000    0.0000    0.0000 H   0  0  0  0  0  0  0  0  0  0  0  0
    0.0000    0.0000    0.0000 H   0  0  0  0  0  0  0  0  0  0  0  0
    0.0000    0.0000    0.0000 H   0  0  0  0  0  0  0  0  0  0  0  0
    0.0000    0.0000    0.0000 H   0  0  0  0  0  0  0  0  0  0  0  0
    0.0000    0.0000    0.0000 H   0  0  0  0  0  0  0  0  0  0  0  0
    0.0000    0.0000    0.0000 H   0  0  0  0  0  0  0  0  0  0  0  0
    0.0000    0.0000    0.0000 H   0  0  0  0  0  0  0  0  0  0  0  0
    0.0000    0.0000    0.0000 H   0  0  0  0  0  0  0  0  0  0  0  0
    0.0000    0.0000    0.0000 H   0  0  0  0  0  0  0  0  0  0  0  0
    0.0000    0.0000    0.0000 H   0  0  0  0  0  0  0  0  0  0  0  0
    0.0000    0.0000    0.0000 H   0  0  0  0  0  0  0  0  0  0  0  0
    0.0000    0.0000    0.0000 H   0  0  0  0  0  0  0  0  0  0  0  0
    0.0000    0.0000    0.0000 H   0  0  0  0  0  0  0  0  0  0  0  0
    0.0000    0.0000    0.0000 H   0  0  0  0  0  0  0  0  0  0  0  0
    0.0000    0.0000    0.0000 H   0  0  0  0  0  0  0  0  0  0  0  0
    0.0000    0.0000    0.0000 H   0  0  0  0  0  0  0  0  0  0  0  0
    0.0000    0.0000    0.0000 H   0  0  0  0  0  0  0  0  0  0  0  0
    0.0000    0.0000    0.0000 H   0  0  0  0  0  0  0  0  0  0  0  0
    0.0000    0.0000    0.0000 H   0  0  0  0  0  0  0  0  0  0  0  0
    0.0000    0.0000    0.0000 H   0  0  0  0  0  0  0  0  0  0  0  0
  1  2  1  6
  1  3  1  0
  1  4  1  0
  3  5  1  0
  4  6  1  0
  7  5  1  6
  8  6  1  6
  6  9  2  0
  7 10  1  0
  7 11  1  0
  8 12  1  0
 10 13  1  0
 11 14  1  0
 12 15  1  0
 13 16  2  0
 13 17  1  0
 14 18  1  0
 14 19  2  0
 15 20  1  0
 15 21  2  0
 16 22  1  0
 17 23  2  0
 18 24  1  0
 20 25  1  0
 20 26  1  0
 22 27  2  0
 24 28  1  0
 25 29  1  0
 28 30  2  0
 28 31  1  0
 29 32  1  0
 29 33  2  0
 30 34  1  0
 31 35  1  0
 32 36  2  0
 33 37  1  0
 36 38  1  0
 38 39  1  0
 38 40  1  0
 23 27  1  0
 34 35  2  0
 36 37  1  0
  2 41  1  0
 41 42  2  0
 42 43  1  0
 43 44  2  0
 44 45  1  0
 45 46  2  0
 41 46  1  0
  8 47  1  0
 47 48  1  0
 48 49  1  0
 49 50  1  0
 50 51  1  0
 51 52  1  0
 52 53  1  0
 53 54  1  0
 49 54  1  0
  1 55  1  0
  2 56  1  0
  2 57  1  0
  3 58  1  0
  3 59  1  0
  4 60  1  0
  5 61  1  0
  5 62  1  0
  7 63  1  0
  8 64  1  0
 10 65  1  0
 10 66  1  0
 11 67  1  0
 12 68  1  0
 16 69  1  0
 17 70  1  0
 22 71  1  0
 23 72  1  0
 24 73  1  0
 24 74  1  0
 25 75  1  0
 25 76  1  0
 26 77  1  0
 26 78  1  0
 26 79  1  0
 27 80  1  0
 30 81  1  0
 33 82  1  0
 35 83  1  0
 38 84  1  0
 39 85  1  0
 39 86  1  0
 39 87  1  0
 40 88  1  0
 40 89  1  0
 40 90  1  0
 42 91  1  0
 43 92  1  0
 44 93  1  0
 45 94  1  0
 46 95  1  0
 47 96  1  0
 47 97  1  0
 48 98  1  0
 48 99  1  0
 50100  1  0
 50101  1  0
 51102  1  0
 51103  1  0
 53104  1  0
 53105  1  0
 54106  1  0
 54107  1  0
M  END
>  <ALOGPS_LOGP>  (1) 
4.36

>  <ALOGPS_LOGS>  (1) 
-5.79

>  <ALOGPS_SOLUBILITY>  (1) 
1.25e-03 g/l

>  <DATABASE_ID>  (1) 
DB09065

>  <DATABASE_NAME>  (1) 
drugbank

>  <DRUGBANK_ID>  (1) 
DB09065

>  <DRUG_GROUPS>  (1) 
approved

>  <EXACT_MASS>  (1) 
775.354960183

>  <FORMULA>  (1) 
C40H53N7O5S2

>  <GENERIC_NAME>  (1) 
Cobicistat

>  <INCHI_IDENTIFIER>  (1) 
InChI=1S/C40H53N7O5S2/c1-29(2)38-43-34(27-53-38)25-46(3)39(49)45-36(16-17-47-18-20-51-21-19-47)37(48)42-32(22-30-10-6-4-7-11-30)14-15-33(23-31-12-8-5-9-13-31)44-40(50)52-26-35-24-41-28-54-35/h4-13,24,27-29,32-33,36H,14-23,25-26H2,1-3H3,(H,42,48)(H,44,50)(H,45,49)/t32-,33-,36+/m1/s1

>  <INCHI_KEY>  (1) 
ZCIGNRJZKPOIKD-CQXVEOKZSA-N

>  <JCHEM_ACCEPTOR_COUNT>  (1) 
7

>  <JCHEM_ATOM_COUNT>  (1) 
107

>  <JCHEM_AVERAGE_POLARIZABILITY>  (1) 
83.42300575992331

>  <JCHEM_BIOAVAILABILITY>  (1) 
0

>  <JCHEM_DONOR_COUNT>  (1) 
3

>  <JCHEM_FORMAL_CHARGE>  (1) 
0

>  <JCHEM_GHOSE_FILTER>  (1) 
0

>  <JCHEM_IUPAC>  (1) 
(1,3-thiazol-5-yl)methyl N-[(2R,5R)-5-[(2S)-2-{[methyl({[2-(propan-2-yl)-1,3-thiazol-4-yl]methyl})carbamoyl]amino}-4-(morpholin-4-yl)butanamido]-1,6-diphenylhexan-2-yl]carbamate

>  <JCHEM_LOGP>  (1) 
4.985280279666665

>  <JCHEM_MDDR_LIKE_RULE>  (1) 
1

>  <JCHEM_NUMBER_OF_RINGS>  (1) 
5

>  <JCHEM_PHYSIOLOGICAL_CHARGE>  (1) 
0

>  <JCHEM_PKA>  (1) 
14.652460403058754

>  <JCHEM_PKA_STRONGEST_ACIDIC>  (1) 
14.178094528216644

>  <JCHEM_PKA_STRONGEST_BASIC>  (1) 
6.6925062634645505

>  <JCHEM_POLAR_SURFACE_AREA>  (1) 
138.02

>  <JCHEM_REFRACTIVITY>  (1) 
211.48929999999993

>  <JCHEM_ROTATABLE_BOND_COUNT>  (1) 
20

>  <JCHEM_RULE_OF_FIVE>  (1) 
0

>  <JCHEM_TRADITIONAL_IUPAC>  (1) 
1,3-thiazol-5-ylmethyl N-[(2R,5R)-5-[(2S)-2-({[(2-isopropyl-1,3-thiazol-4-yl)methyl](methyl)carbamoyl}amino)-4-(morpholin-4-yl)butanamido]-1,6-diphenylhexan-2-yl]carbamate

>  <JCHEM_VEBER_RULE>  (1) 
0

>  <MOLECULAR_WEIGHT>  (1) 
776.03

>  <PRODUCTS>  (1) 
Evotaz; Genvoya; Prezcobix; Rezolsta; Stribild; Tybost

>  <SMILES>  (1) 
CC(C)C1=NC(CN(C)C(=O)N[C@@H](CCN2CCOCC2)C(=O)N[C@H](CC[C@H](CC2=CC=CC=C2)NC(=O)OCC2=CN=CS2)CC2=CC=CC=C2)=CS1

>  <SYNONYMS>  (1) 
1,3-thiazol-5-ylmethyl [(2R,5R)-5-{[(2S)-2-({[(2-isopropyl-1,3-thiazol-4-yl)methyl](methyl)carbamoyl}amino)-4-(morpholin-4-yl)butanoyl]amino}-1,6-diphenylhexan-2-yl]carbamate

$$$$
