
     RDKit          2D

 83 87  0  0  0  0  0  0  0  0999 V2000
   -3.1853    0.8125    0.0000 P   0  0  0  0  0  0  0  0  0  0  0  0
   -3.1853   -0.0161    0.0000 O   0  0  0  0  0  0  0  0  0  0  0  0
   -3.8955    1.2213    0.0000 O   0  0  0  0  0  0  0  0  0  0  0  0
   -3.1853    1.6411    0.0000 O   0  0  0  0  0  0  0  0  0  0  0  0
    0.3766    1.2213    0.0000 O   0  0  0  0  0  0  0  0  0  0  0  0
   -0.3336   -0.0161    0.0000 O   0  0  0  0  0  0  0  0  0  0  0  0
   -0.3336   -2.5019    0.0000 O   0  0  0  0  0  0  0  0  0  0  0  0
    0.4950   -1.1783    0.0000 O   0  0  0  0  0  0  0  0  0  0  0  0
   -1.7432    2.4697    0.0000 N   0  0  0  0  0  0  0  0  0  0  0  0
   -0.3336   -1.6733    0.0000 N   0  0  0  0  0  0  0  0  0  0  0  0
    2.5290    0.8554    0.0000 N   0  0  0  0  0  0  0  0  0  0  0  0
   -2.4859    1.2213    0.0000 C   0  0  0  0  0  0  0  0  0  0  0  0
   -1.7432    0.8125    0.0000 C   0  0  0  0  0  0  0  0  0  0  0  0
   -1.0330    1.2213    0.0000 C   0  0  0  0  0  0  0  0  0  0  0  0
   -2.4859    2.0501    0.0000 C   0  0  0  0  0  0  0  0  0  0  0  0
   -1.7432   -0.0161    0.0000 C   0  0  0  0  0  0  0  0  0  0  0  0
   -1.0330    2.0501    0.0000 C   0  0  0  0  0  0  0  0  0  0  0  0
   -0.3336    0.8125    0.0000 C   0  0  0  0  0  0  0  0  0  0  0  0
   -4.6381   -0.0161    0.0000 C   0  0  0  0  0  0  0  0  0  0  0  0
   -1.0330   -0.4358    0.0000 C   0  0  0  0  0  0  0  0  0  0  0  0
   -3.9279   -0.4358    0.0000 C   0  0  0  0  0  0  0  0  0  0  0  0
   -4.6381    0.8125    0.0000 C   0  0  0  0  0  0  0  0  0  0  0  0
   -2.4859   -0.4358    0.0000 C   0  0  0  0  0  0  0  0  0  0  0  0
   -3.1853    2.4697    0.0000 C   0  0  0  0  0  0  0  0  0  0  0  0
   -1.0330   -1.2644    0.0000 C   0  0  0  0  0  0  0  0  0  0  0  0
   -0.3336    2.5019    0.0000 C   0  0  0  0  0  0  0  0  0  0  0  0
   -2.4859   -1.2644    0.0000 C   0  0  0  0  0  0  0  0  0  0  0  0
   -1.7432   -1.6733    0.0000 C   0  0  0  0  0  0  0  0  0  0  0  0
   -5.3806   -0.4358    0.0000 C   0  0  0  0  0  0  0  0  0  0  0  0
   -5.3376    0.3927    0.0000 C   0  0  0  0  0  0  0  0  0  0  0  0
    1.1192    0.8125    0.0000 C   0  0  0  0  0  0  0  0  0  0  0  0
    1.8186    1.2644    0.0000 C   0  0  0  0  0  0  0  0  0  0  0  0
    2.5290    0.0268    0.0000 C   0  0  0  0  0  0  0  0  0  0  0  0
    3.2715    1.2213    0.0000 C   0  0  0  0  0  0  0  0  0  0  0  0
    3.9710    0.8554    0.0000 C   0  0  0  0  0  0  0  0  0  0  0  0
    3.2284   -0.3928    0.0000 C   0  0  0  0  0  0  0  0  0  0  0  0
    1.8186   -0.3928    0.0000 C   0  0  0  0  0  0  0  0  0  0  0  0
    4.6813    1.2213    0.0000 C   0  0  0  0  0  0  0  0  0  0  0  0
    3.9710    0.0268    0.0000 C   0  0  0  0  0  0  0  0  0  0  0  0
    3.2284   -1.2214    0.0000 C   0  0  0  0  0  0  0  0  0  0  0  0
    1.8186   -1.2214    0.0000 C   0  0  0  0  0  0  0  0  0  0  0  0
    2.5290   -1.6303    0.0000 C   0  0  0  0  0  0  0  0  0  0  0  0
    5.3806    0.8125    0.0000 C   0  0  0  0  0  0  0  0  0  0  0  0
    4.6813   -0.3928    0.0000 C   0  0  0  0  0  0  0  0  0  0  0  0
    5.3806    0.0268    0.0000 C   0  0  0  0  0  0  0  0  0  0  0  0
    0.0000    0.0000    0.0000 H   0  0  0  0  0  0  0  0  0  0  0  0
    0.0000    0.0000    0.0000 H   0  0  0  0  0  0  0  0  0  0  0  0
    0.0000    0.0000    0.0000 H   0  0  0  0  0  0  0  0  0  0  0  0
    0.0000    0.0000    0.0000 H   0  0  0  0  0  0  0  0  0  0  0  0
    0.0000    0.0000    0.0000 H   0  0  0  0  0  0  0  0  0  0  0  0
    0.0000    0.0000    0.0000 H   0  0  0  0  0  0  0  0  0  0  0  0
    0.0000    0.0000    0.0000 H   0  0  0  0  0  0  0  0  0  0  0  0
    0.0000    0.0000    0.0000 H   0  0  0  0  0  0  0  0  0  0  0  0
    0.0000    0.0000    0.0000 H   0  0  0  0  0  0  0  0  0  0  0  0
    0.0000    0.0000    0.0000 H   0  0  0  0  0  0  0  0  0  0  0  0
    0.0000    0.0000    0.0000 H   0  0  0  0  0  0  0  0  0  0  0  0
    0.0000    0.0000    0.0000 H   0  0  0  0  0  0  0  0  0  0  0  0
    0.0000    0.0000    0.0000 H   0  0  0  0  0  0  0  0  0  0  0  0
    0.0000    0.0000    0.0000 H   0  0  0  0  0  0  0  0  0  0  0  0
    0.0000    0.0000    0.0000 H   0  0  0  0  0  0  0  0  0  0  0  0
    0.0000    0.0000    0.0000 H   0  0  0  0  0  0  0  0  0  0  0  0
    0.0000    0.0000    0.0000 H   0  0  0  0  0  0  0  0  0  0  0  0
    0.0000    0.0000    0.0000 H   0  0  0  0  0  0  0  0  0  0  0  0
    0.0000    0.0000    0.0000 H   0  0  0  0  0  0  0  0  0  0  0  0
    0.0000    0.0000    0.0000 H   0  0  0  0  0  0  0  0  0  0  0  0
    0.0000    0.0000    0.0000 H   0  0  0  0  0  0  0  0  0  0  0  0
    0.0000    0.0000    0.0000 H   0  0  0  0  0  0  0  0  0  0  0  0
    0.0000    0.0000    0.0000 H   0  0  0  0  0  0  0  0  0  0  0  0
    0.0000    0.0000    0.0000 H   0  0  0  0  0  0  0  0  0  0  0  0
    0.0000    0.0000    0.0000 H   0  0  0  0  0  0  0  0  0  0  0  0
    0.0000    0.0000    0.0000 H   0  0  0  0  0  0  0  0  0  0  0  0
    0.0000    0.0000    0.0000 H   0  0  0  0  0  0  0  0  0  0  0  0
    0.0000    0.0000    0.0000 H   0  0  0  0  0  0  0  0  0  0  0  0
    0.0000    0.0000    0.0000 H   0  0  0  0  0  0  0  0  0  0  0  0
    0.0000    0.0000    0.0000 H   0  0  0  0  0  0  0  0  0  0  0  0
    0.0000    0.0000    0.0000 H   0  0  0  0  0  0  0  0  0  0  0  0
    0.0000    0.0000    0.0000 H   0  0  0  0  0  0  0  0  0  0  0  0
    0.0000    0.0000    0.0000 H   0  0  0  0  0  0  0  0  0  0  0  0
    0.0000    0.0000    0.0000 H   0  0  0  0  0  0  0  0  0  0  0  0
    0.0000    0.0000    0.0000 H   0  0  0  0  0  0  0  0  0  0  0  0
    0.0000    0.0000    0.0000 H   0  0  0  0  0  0  0  0  0  0  0  0
    0.0000    0.0000    0.0000 H   0  0  0  0  0  0  0  0  0  0  0  0
    0.0000    0.0000    0.0000 H   0  0  0  0  0  0  0  0  0  0  0  0
  1  2  1  0
  1  3  1  0
  1  4  2  0
  1 12  1  0
  2 21  1  0
  3 22  1  0
  5 18  1  0
  5 31  1  0
  6 18  2  0
  7 10  1  0
  8 10  2  0
  9 15  1  0
  9 17  1  0
 10 25  1  0
 11 32  1  0
 11 33  1  0
 11 34  1  0
 12 13  1  0
 12 15  2  0
 13 14  1  0
 13 16  1  0
 14 17  2  0
 14 18  1  0
 15 24  1  0
 16 20  2  0
 16 23  1  0
 17 26  1  0
 19 21  1  0
 19 22  1  0
 19 29  1  0
 19 30  1  0
 20 25  1  0
 23 27  2  0
 25 28  2  0
 27 28  1  0
 31 32  1  0
 33 36  2  0
 33 37  1  0
 34 35  1  0
 35 38  2  0
 35 39  1  0
 36 40  1  0
 37 41  2  0
 38 43  1  0
 39 44  2  0
 40 42  2  0
 41 42  1  0
 43 45  2  0
 44 45  1  0
  9 46  1  0
 13 47  1  0
 20 48  1  0
 21 49  1  0
 21 50  1  0
 22 51  1  0
 22 52  1  0
 23 53  1  0
 24 54  1  0
 24 55  1  0
 24 56  1  0
 26 57  1  0
 26 58  1  0
 26 59  1  0
 27 60  1  0
 28 61  1  0
 29 62  1  0
 29 63  1  0
 29 64  1  0
 30 65  1  0
 30 66  1  0
 30 67  1  0
 31 68  1  0
 31 69  1  0
 32 70  1  0
 32 71  1  0
 34 72  1  0
 34 73  1  0
 36 74  1  0
 37 75  1  0
 38 76  1  0
 39 77  1  0
 40 78  1  0
 41 79  1  0
 42 80  1  0
 43 81  1  0
 44 82  1  0
 45 83  1  0
M  CHG  2   7  -1  10   1
M  END
>  <ALOGPS_LOGP>  (1) 
5.35

>  <ALOGPS_LOGS>  (1) 
-6.41

>  <ALOGPS_SOLUBILITY>  (1) 
2.48e-04 g/l

>  <DATABASE_ID>  (1) 
DB09235

>  <DATABASE_NAME>  (1) 
drugbank

>  <DRUGBANK_ID>  (1) 
DB09235

>  <DRUG_GROUPS>  (1) 
approved; investigational

>  <EXACT_MASS>  (1) 
631.244737574

>  <FORMULA>  (1) 
C34H38N3O7P

>  <GENERIC_NAME>  (1) 
Efonidipine

>  <INCHI_IDENTIFIER>  (1) 
InChI=1S/C34H38N3O7P/c1-24-30(33(38)42-19-18-36(28-15-9-6-10-16-28)21-26-12-7-5-8-13-26)31(27-14-11-17-29(20-27)37(39)40)32(25(2)35-24)45(41)43-22-34(3,4)23-44-45/h5-17,20,31,35H,18-19,21-23H2,1-4H3

>  <INCHI_KEY>  (1) 
NSVFSAJIGAJDMR-UHFFFAOYSA-N

>  <INTERNATIONAL_BRANDS>  (1) 
Landel

>  <JCHEM_ACCEPTOR_COUNT>  (1) 
6

>  <JCHEM_ATOM_COUNT>  (1) 
83

>  <JCHEM_AVERAGE_POLARIZABILITY>  (1) 
64.96417822259099

>  <JCHEM_BIOAVAILABILITY>  (1) 
0

>  <JCHEM_DONOR_COUNT>  (1) 
1

>  <JCHEM_FORMAL_CHARGE>  (1) 
0

>  <JCHEM_GHOSE_FILTER>  (1) 
0

>  <JCHEM_IUPAC>  (1) 
2-[benzyl(phenyl)amino]ethyl 5-(5,5-dimethyl-2-oxo-1,3,2λ⁵-dioxaphosphinan-2-yl)-2,6-dimethyl-4-(3-nitrophenyl)-1,4-dihydropyridine-3-carboxylate

>  <JCHEM_LOGP>  (1) 
5.443370372000003

>  <JCHEM_MDDR_LIKE_RULE>  (1) 
1

>  <JCHEM_NUMBER_OF_RINGS>  (1) 
5

>  <JCHEM_PHYSIOLOGICAL_CHARGE>  (1) 
0

>  <JCHEM_PKA_STRONGEST_ACIDIC>  (1) 
19.490358417518895

>  <JCHEM_PKA_STRONGEST_BASIC>  (1) 
2.3323812981454655

>  <JCHEM_POLAR_SURFACE_AREA>  (1) 
120.24000000000001

>  <JCHEM_REFRACTIVITY>  (1) 
175.4000999999999

>  <JCHEM_ROTATABLE_BOND_COUNT>  (1) 
11

>  <JCHEM_RULE_OF_FIVE>  (1) 
0

>  <JCHEM_TRADITIONAL_IUPAC>  (1) 
efonidipine

>  <JCHEM_VEBER_RULE>  (1) 
0

>  <MOLECULAR_WEIGHT>  (1) 
631.666

>  <SALTS>  (1) 
Efonidipine hydrochloride

>  <SMILES>  (1) 
CC1=C(C(C2=CC=CC(=C2)[N+]([O-])=O)C(=C(C)N1)P1(=O)OCC(C)(C)CO1)C(=O)OCCN(CC1=CC=CC=C1)C1=CC=CC=C1

$$$$
