
     RDKit          2D

 15 11  0  0  0  0  0  0  0  0999 V2000
    0.0000    0.0000    0.0000 Al  0  0  0  0  0  0  0  0  0  0  0  0
    0.8839    0.0000    0.0000 K   0  0  0  0  0  0  0  0  0  0  0  0
    0.0000   -3.3000    0.0000 O   0  0  0  0  0  0  0  0  0  0  0  0
    0.0000   -2.4750    0.0000 S   0  0  0  0  0  0  0  0  0  0  0  0
    0.0000   -1.6500    0.0000 O   0  0  0  0  0  0  0  0  0  0  0  0
    0.8250   -2.4750    0.0000 O   0  0  0  0  0  0  0  0  0  0  0  0
   -0.8250   -2.4750    0.0000 O   0  0  0  0  0  0  0  0  0  0  0  0
    3.6536   -3.3000    0.0000 O   0  0  0  0  0  0  0  0  0  0  0  0
    3.6536   -2.4750    0.0000 S   0  0  0  0  0  0  0  0  0  0  0  0
    3.6536   -1.6500    0.0000 O   0  0  0  0  0  0  0  0  0  0  0  0
    4.4786   -2.4750    0.0000 O   0  0  0  0  0  0  0  0  0  0  0  0
    2.8286   -2.4750    0.0000 O   0  0  0  0  0  0  0  0  0  0  0  0
    0.0000    0.0000    0.0000 H   0  0  0  0  0  0  0  0  0  0  0  0
    0.0000    0.0000    0.0000 H   0  0  0  0  0  0  0  0  0  0  0  0
    0.0000    0.0000    0.0000 H   0  0  0  0  0  0  0  0  0  0  0  0
  3  4  1  0
  4  5  1  0
  4  6  2  0
  4  7  2  0
  8  9  1  0
  9 10  1  0
  9 11  2  0
  9 12  2  0
  1 13  1  0
  1 14  1  0
  1 15  1  0
M  CHG  6   1   3   2   1   3  -1   5  -1   8  -1  10  -1
M  END
>  <DATABASE_ID>  (1) 
DB09087

>  <DATABASE_NAME>  (1) 
drugbank

>  <DRUGBANK_ID>  (1) 
DB09087

>  <DRUG_GROUPS>  (1) 
approved

>  <EXACT_MASS>  (1) 
257.848703658

>  <FORMULA>  (1) 
AlKO8S2

>  <GENERIC_NAME>  (1) 
Potassium alum

>  <INCHI_IDENTIFIER>  (1) 
InChI=1S/Al.K.2H2O4S/c;;2*1-5(2,3)4/h;;2*(H2,1,2,3,4)/q+3;+1;;/p-4

>  <INCHI_KEY>  (1) 
GRLPQNLYRHEGIJ-UHFFFAOYSA-J

>  <JCHEM_ACCEPTOR_COUNT>  (1) 
4

>  <JCHEM_AVERAGE_POLARIZABILITY>  (1) 
5.805291890677037

>  <JCHEM_BIOAVAILABILITY>  (1) 
1

>  <JCHEM_DONOR_COUNT>  (1) 
0

>  <JCHEM_FORMAL_CHARGE>  (1) 
0

>  <JCHEM_GHOSE_FILTER>  (1) 
0

>  <JCHEM_IUPAC>  (1) 
aluminium(3+) ion potassium disulfate

>  <JCHEM_LOGP>  (1) 
-0.8415520233333333

>  <JCHEM_MDDR_LIKE_RULE>  (1) 
0

>  <JCHEM_NUMBER_OF_RINGS>  (1) 
0

>  <JCHEM_PHYSIOLOGICAL_CHARGE>  (1) 
-2

>  <JCHEM_PKA>  (1) 
1.8964254257138706

>  <JCHEM_PKA_STRONGEST_ACIDIC>  (1) 
-3.034349054191991

>  <JCHEM_POLAR_SURFACE_AREA>  (1) 
80.25999999999999

>  <JCHEM_REFRACTIVITY>  (1) 
11.5274

>  <JCHEM_ROTATABLE_BOND_COUNT>  (1) 
0

>  <JCHEM_RULE_OF_FIVE>  (1) 
1

>  <JCHEM_TRADITIONAL_IUPAC>  (1) 
aluminium(3+) ion potassium disulfate

>  <JCHEM_VEBER_RULE>  (1) 
0

>  <MOLECULAR_WEIGHT>  (1) 
258.205

>  <SALTS>  (1) 
Potassium alum dodecahydrate

>  <SMILES>  (1) 
[Al+3].[K+].[O-]S([O-])(=O)=O.[O-]S([O-])(=O)=O

>  <SYNONYMS>  (1) 
Aluminium potassium sulfate; Aluminum potassium sulfate anhydrous; Potassium aluminium sulfate

$$$$
