
     RDKit          2D

 45 47  0  0  0  0  0  0  0  0999 V2000
   -2.1189    0.2977    0.0000 O   0  0  0  0  0  0  0  0  0  0  0  0
   -1.4012   -0.1172    0.0000 C   0  0  0  0  0  0  0  0  0  0  0  0
   -1.4012   -0.9423    0.0000 N   0  0  0  0  0  0  0  0  0  0  0  0
   -0.6883    0.2977    0.0000 C   0  0  0  0  0  0  0  0  0  0  0  0
   -1.0985    1.0106    0.0000 C   0  0  0  0  0  0  0  0  0  0  0  0
   -0.6883    1.7283    0.0000 C   0  0  0  0  0  0  0  0  0  0  0  0
   -1.0985    2.4410    0.0000 C   0  0  0  0  0  0  0  0  0  0  0  0
   -1.9235    2.4410    0.0000 C   0  0  0  0  0  0  0  0  0  0  0  0
   -2.3385    1.7283    0.0000 C   0  0  0  0  0  0  0  0  0  0  0  0
   -1.9235    1.0106    0.0000 C   0  0  0  0  0  0  0  0  0  0  0  0
    0.0292    0.7079    0.0000 C   0  0  0  0  0  0  0  0  0  0  0  0
    0.7421    0.2977    0.0000 C   0  0  0  0  0  0  0  0  0  0  0  0
    1.4598    0.7079    0.0000 C   0  0  0  0  0  0  0  0  0  0  0  0
    1.4598    1.5329    0.0000 C   0  0  0  0  0  0  0  0  0  0  0  0
    0.7421    1.9479    0.0000 C   0  0  0  0  0  0  0  0  0  0  0  0
    0.0292    1.5329    0.0000 C   0  0  0  0  0  0  0  0  0  0  0  0
   -0.2733   -0.4198    0.0000 C   0  0  0  0  0  0  0  0  0  0  0  0
    0.5517   -0.4198    0.0000 C   0  0  0  0  0  0  0  0  0  0  0  0
    0.9666   -1.1327    0.0000 N   0  0  0  0  0  0  0  0  0  0  0  0
    0.6298   -1.8894    0.0000 C   0  0  0  0  0  0  0  0  0  0  0  0
    1.2400   -2.4410    0.0000 C   0  0  0  0  0  0  0  0  0  0  0  0
    1.9578   -2.0260    0.0000 N   0  0  0  0  0  0  0  0  0  0  0  0
    1.7869   -1.2205    0.0000 C   0  0  0  0  0  0  0  0  0  0  0  0
    2.3385   -0.6053    0.0000 C   0  0  0  0  0  0  0  0  0  0  0  0
    0.0000    0.0000    0.0000 H   0  0  0  0  0  0  0  0  0  0  0  0
    0.0000    0.0000    0.0000 H   0  0  0  0  0  0  0  0  0  0  0  0
    0.0000    0.0000    0.0000 H   0  0  0  0  0  0  0  0  0  0  0  0
    0.0000    0.0000    0.0000 H   0  0  0  0  0  0  0  0  0  0  0  0
    0.0000    0.0000    0.0000 H   0  0  0  0  0  0  0  0  0  0  0  0
    0.0000    0.0000    0.0000 H   0  0  0  0  0  0  0  0  0  0  0  0
    0.0000    0.0000    0.0000 H   0  0  0  0  0  0  0  0  0  0  0  0
    0.0000    0.0000    0.0000 H   0  0  0  0  0  0  0  0  0  0  0  0
    0.0000    0.0000    0.0000 H   0  0  0  0  0  0  0  0  0  0  0  0
    0.0000    0.0000    0.0000 H   0  0  0  0  0  0  0  0  0  0  0  0
    0.0000    0.0000    0.0000 H   0  0  0  0  0  0  0  0  0  0  0  0
    0.0000    0.0000    0.0000 H   0  0  0  0  0  0  0  0  0  0  0  0
    0.0000    0.0000    0.0000 H   0  0  0  0  0  0  0  0  0  0  0  0
    0.0000    0.0000    0.0000 H   0  0  0  0  0  0  0  0  0  0  0  0
    0.0000    0.0000    0.0000 H   0  0  0  0  0  0  0  0  0  0  0  0
    0.0000    0.0000    0.0000 H   0  0  0  0  0  0  0  0  0  0  0  0
    0.0000    0.0000    0.0000 H   0  0  0  0  0  0  0  0  0  0  0  0
    0.0000    0.0000    0.0000 H   0  0  0  0  0  0  0  0  0  0  0  0
    0.0000    0.0000    0.0000 H   0  0  0  0  0  0  0  0  0  0  0  0
    0.0000    0.0000    0.0000 H   0  0  0  0  0  0  0  0  0  0  0  0
    0.0000    0.0000    0.0000 H   0  0  0  0  0  0  0  0  0  0  0  0
  1  2  2  0
  2  3  1  0
  2  4  1  0
  4  5  1  0
  4 11  1  0
  4 17  1  0
  5  6  2  0
  5 10  1  0
  6  7  1  0
  7  8  2  0
  8  9  1  0
  9 10  2  0
 11 12  2  0
 11 16  1  0
 12 13  1  0
 13 14  2  0
 14 15  1  0
 15 16  2  0
 17 18  1  0
 18 19  1  0
 19 20  1  0
 19 23  1  0
 20 21  2  0
 21 22  1  0
 22 23  2  0
 23 24  1  0
  3 25  1  0
  3 26  1  0
  6 27  1  0
  7 28  1  0
  8 29  1  0
  9 30  1  0
 10 31  1  0
 12 32  1  0
 13 33  1  0
 14 34  1  0
 15 35  1  0
 16 36  1  0
 17 37  1  0
 17 38  1  0
 18 39  1  0
 18 40  1  0
 20 41  1  0
 21 42  1  0
 24 43  1  0
 24 44  1  0
 24 45  1  0
M  END
>  <ALOGPS_LOGP>  (1) 
2.81

>  <ALOGPS_LOGS>  (1) 
-4.53

>  <ALOGPS_SOLUBILITY>  (1) 
9.51e-03 g/l

>  <DATABASE_ID>  (1) 
DB09262

>  <DATABASE_NAME>  (1) 
drugbank

>  <DRUGBANK_ID>  (1) 
DB09262

>  <DRUG_GROUPS>  (1) 
approved; investigational

>  <EXACT_MASS>  (1) 
319.168462308

>  <FORMULA>  (1) 
C20H21N3O

>  <GENERIC_NAME>  (1) 
Imidafenacin

>  <INCHI_IDENTIFIER>  (1) 
InChI=1S/C20H21N3O/c1-16-22-13-15-23(16)14-12-20(19(21)24,17-8-4-2-5-9-17)18-10-6-3-7-11-18/h2-11,13,15H,12,14H2,1H3,(H2,21,24)

>  <INCHI_KEY>  (1) 
SQKXYSGRELMAAU-UHFFFAOYSA-N

>  <INTERNATIONAL_BRANDS>  (1) 
Staybla; Uritos

>  <JCHEM_ACCEPTOR_COUNT>  (1) 
2

>  <JCHEM_ATOM_COUNT>  (1) 
45

>  <JCHEM_AVERAGE_POLARIZABILITY>  (1) 
35.03459314305546

>  <JCHEM_BIOAVAILABILITY>  (1) 
1

>  <JCHEM_DONOR_COUNT>  (1) 
1

>  <JCHEM_FORMAL_CHARGE>  (1) 
0

>  <JCHEM_GHOSE_FILTER>  (1) 
1

>  <JCHEM_IUPAC>  (1) 
4-(2-methyl-1H-imidazol-1-yl)-2,2-diphenylbutanamide

>  <JCHEM_LOGP>  (1) 
2.764839751

>  <JCHEM_MDDR_LIKE_RULE>  (1) 
1

>  <JCHEM_NUMBER_OF_RINGS>  (1) 
3

>  <JCHEM_PHYSIOLOGICAL_CHARGE>  (1) 
1

>  <JCHEM_PKA_STRONGEST_ACIDIC>  (1) 
16.113920214358018

>  <JCHEM_PKA_STRONGEST_BASIC>  (1) 
7.3491489038116065

>  <JCHEM_POLAR_SURFACE_AREA>  (1) 
60.910000000000004

>  <JCHEM_REFRACTIVITY>  (1) 
94.8564

>  <JCHEM_ROTATABLE_BOND_COUNT>  (1) 
6

>  <JCHEM_RULE_OF_FIVE>  (1) 
1

>  <JCHEM_TRADITIONAL_IUPAC>  (1) 
imidafenacin

>  <JCHEM_VEBER_RULE>  (1) 
0

>  <MOLECULAR_WEIGHT>  (1) 
319.408

>  <SMILES>  (1) 
CC1=NC=CN1CCC(C(N)=O)(C1=CC=CC=C1)C1=CC=CC=C1

$$$$
