
     RDKit          2D

 54 56  0  0  0  0  0  0  0  0999 V2000
   -4.3081   -1.4639    0.0000 C   0  0  0  0  0  0  0  0  0  0  0  0
   -4.3081   -0.6274    0.0000 N   0  0  0  0  0  0  0  0  0  0  0  0
   -3.5970   -0.2091    0.0000 C   0  0  0  0  0  0  0  0  0  0  0  0
   -2.8860   -0.6274    0.0000 C   0  0  0  0  0  0  0  0  0  0  0  0
   -2.8860   -1.4639    0.0000 O   0  0  0  0  0  0  0  0  0  0  0  0
   -3.5970   -1.8822    0.0000 C   0  0  0  0  0  0  0  0  0  0  0  0
   -3.5970    0.6274    0.0000 C   0  0  0  0  0  0  0  0  0  0  0  0
   -2.8860    1.0456    0.0000 C   0  0  0  0  0  0  0  0  0  0  0  0
   -2.1330    0.6274    0.0000 C   0  0  0  0  0  0  0  0  0  0  0  0
   -2.1330   -0.2091    0.0000 C   0  0  0  0  0  0  0  0  0  0  0  0
   -5.0609   -1.8822    0.0000 O   0  0  0  0  0  0  0  0  0  0  0  0
   -2.8860    1.8822    0.0000 O   0  0  0  0  0  0  0  0  0  0  0  0
   -1.4220   -0.6274    0.0000 C   0  0  0  0  0  0  0  0  0  0  0  0
   -0.7109   -0.2091    0.0000 C   0  0  0  0  0  0  0  0  0  0  0  0
   -1.4220   -1.4639    0.0000 O   0  0  0  0  0  0  0  0  0  0  0  0
    0.0000   -0.6274    0.0000 N   0  0  0  0  0  0  0  0  0  0  0  0
    0.7109   -0.2091    0.0000 C   0  0  0  0  0  0  0  0  0  0  0  0
    1.4220   -0.6274    0.0000 C   0  0  0  0  0  0  0  0  0  0  0  0
    2.1749   -0.2091    0.0000 C   0  0  0  0  0  0  0  0  0  0  0  0
    0.2926    0.5019    0.0000 C   0  0  0  0  0  0  0  0  0  0  0  0
    1.1292    0.5019    0.0000 C   0  0  0  0  0  0  0  0  0  0  0  0
    2.1749    0.6274    0.0000 C   0  0  0  0  0  0  0  0  0  0  0  0
    2.8860    1.0456    0.0000 C   0  0  0  0  0  0  0  0  0  0  0  0
    3.5970    0.6274    0.0000 C   0  0  0  0  0  0  0  0  0  0  0  0
    3.5970   -0.2091    0.0000 C   0  0  0  0  0  0  0  0  0  0  0  0
    2.8860   -0.6274    0.0000 C   0  0  0  0  0  0  0  0  0  0  0  0
    4.3499    1.0456    0.0000 O   0  0  0  0  0  0  0  0  0  0  0  0
    5.0609    0.6274    0.0000 C   0  0  0  0  0  0  0  0  0  0  0  0
    0.0000    0.0000    0.0000 H   0  0  0  0  0  0  0  0  0  0  0  0
    0.0000    0.0000    0.0000 H   0  0  0  0  0  0  0  0  0  0  0  0
    0.0000    0.0000    0.0000 H   0  0  0  0  0  0  0  0  0  0  0  0
    0.0000    0.0000    0.0000 H   0  0  0  0  0  0  0  0  0  0  0  0
    0.0000    0.0000    0.0000 H   0  0  0  0  0  0  0  0  0  0  0  0
    0.0000    0.0000    0.0000 H   0  0  0  0  0  0  0  0  0  0  0  0
    0.0000    0.0000    0.0000 H   0  0  0  0  0  0  0  0  0  0  0  0
    0.0000    0.0000    0.0000 H   0  0  0  0  0  0  0  0  0  0  0  0
    0.0000    0.0000    0.0000 H   0  0  0  0  0  0  0  0  0  0  0  0
    0.0000    0.0000    0.0000 H   0  0  0  0  0  0  0  0  0  0  0  0
    0.0000    0.0000    0.0000 H   0  0  0  0  0  0  0  0  0  0  0  0
    0.0000    0.0000    0.0000 H   0  0  0  0  0  0  0  0  0  0  0  0
    0.0000    0.0000    0.0000 H   0  0  0  0  0  0  0  0  0  0  0  0
    0.0000    0.0000    0.0000 H   0  0  0  0  0  0  0  0  0  0  0  0
    0.0000    0.0000    0.0000 H   0  0  0  0  0  0  0  0  0  0  0  0
    0.0000    0.0000    0.0000 H   0  0  0  0  0  0  0  0  0  0  0  0
    0.0000    0.0000    0.0000 H   0  0  0  0  0  0  0  0  0  0  0  0
    0.0000    0.0000    0.0000 H   0  0  0  0  0  0  0  0  0  0  0  0
    0.0000    0.0000    0.0000 H   0  0  0  0  0  0  0  0  0  0  0  0
    0.0000    0.0000    0.0000 H   0  0  0  0  0  0  0  0  0  0  0  0
    0.0000    0.0000    0.0000 H   0  0  0  0  0  0  0  0  0  0  0  0
    0.0000    0.0000    0.0000 H   0  0  0  0  0  0  0  0  0  0  0  0
    0.0000    0.0000    0.0000 H   0  0  0  0  0  0  0  0  0  0  0  0
    0.0000    0.0000    0.0000 H   0  0  0  0  0  0  0  0  0  0  0  0
    0.0000    0.0000    0.0000 H   0  0  0  0  0  0  0  0  0  0  0  0
    0.0000    0.0000    0.0000 H   0  0  0  0  0  0  0  0  0  0  0  0
  1  2  1  0
  2  3  1  0
  3  4  2  0
  4  5  1  0
  5  6  1  0
  1  6  1  0
  3  7  1  0
  7  8  2  0
  8  9  1  0
  9 10  2  0
  4 10  1  0
  1 11  2  0
  8 12  1  0
 13 10  1  1
 13 14  1  0
 13 15  1  0
 14 16  1  0
 16 17  1  0
 17 18  1  0
 18 19  1  0
 17 20  1  0
 17 21  1  0
 19 22  2  0
 22 23  1  0
 23 24  2  0
 24 25  1  0
 25 26  2  0
 19 26  1  0
 24 27  1  0
 27 28  1  0
  2 29  1  0
  6 30  1  0
  6 31  1  0
  7 32  1  0
  9 33  1  0
 12 34  1  0
 13 35  1  0
 14 36  1  0
 14 37  1  0
 15 38  1  0
 16 39  1  0
 18 40  1  0
 18 41  1  0
 20 42  1  0
 20 43  1  0
 20 44  1  0
 21 45  1  0
 21 46  1  0
 21 47  1  0
 22 48  1  0
 23 49  1  0
 25 50  1  0
 26 51  1  0
 28 52  1  0
 28 53  1  0
 28 54  1  0
M  END
>  <ALOGPS_LOGP>  (1) 
2.02

>  <ALOGPS_LOGS>  (1) 
-3.74

>  <ALOGPS_SOLUBILITY>  (1) 
7.03e-02 g/l

>  <DATABASE_ID>  (1) 
DB09080

>  <DATABASE_NAME>  (1) 
drugbank

>  <DRUGBANK_ID>  (1) 
DB09080

>  <DRUG_GROUPS>  (1) 
approved

>  <EXACT_MASS>  (1) 
386.184171945

>  <FORMULA>  (1) 
C21H26N2O5

>  <GENERIC_NAME>  (1) 
Olodaterol

>  <INCHI_IDENTIFIER>  (1) 
InChI=1S/C21H26N2O5/c1-21(2,10-13-4-6-15(27-3)7-5-13)22-11-18(25)16-8-14(24)9-17-20(16)28-12-19(26)23-17/h4-9,18,22,24-25H,10-12H2,1-3H3,(H,23,26)/t18-/m0/s1

>  <INCHI_KEY>  (1) 
COUYJEVMBVSIHV-SFHVURJKSA-N

>  <JCHEM_ACCEPTOR_COUNT>  (1) 
6

>  <JCHEM_ATOM_COUNT>  (1) 
54

>  <JCHEM_AVERAGE_POLARIZABILITY>  (1) 
41.343221015312

>  <JCHEM_BIOAVAILABILITY>  (1) 
1

>  <JCHEM_DONOR_COUNT>  (1) 
4

>  <JCHEM_FORMAL_CHARGE>  (1) 
0

>  <JCHEM_GHOSE_FILTER>  (1) 
1

>  <JCHEM_IUPAC>  (1) 
6-hydroxy-8-[(1R)-1-hydroxy-2-{[1-(4-methoxyphenyl)-2-methylpropan-2-yl]amino}ethyl]-3,4-dihydro-2H-1,4-benzoxazin-3-one

>  <JCHEM_LOGP>  (1) 
1.1931407006669257

>  <JCHEM_MDDR_LIKE_RULE>  (1) 
1

>  <JCHEM_NUMBER_OF_RINGS>  (1) 
3

>  <JCHEM_PHYSIOLOGICAL_CHARGE>  (1) 
1

>  <JCHEM_PKA>  (1) 
11.67152773937834

>  <JCHEM_PKA_STRONGEST_ACIDIC>  (1) 
9.216616076182115

>  <JCHEM_PKA_STRONGEST_BASIC>  (1) 
9.836146773684892

>  <JCHEM_POLAR_SURFACE_AREA>  (1) 
100.05000000000001

>  <JCHEM_REFRACTIVITY>  (1) 
106.9043

>  <JCHEM_ROTATABLE_BOND_COUNT>  (1) 
7

>  <JCHEM_RULE_OF_FIVE>  (1) 
1

>  <JCHEM_TRADITIONAL_IUPAC>  (1) 
6-hydroxy-8-[(1R)-1-hydroxy-2-{[1-(4-methoxyphenyl)-2-methylpropan-2-yl]amino}ethyl]-2,4-dihydro-1,4-benzoxazin-3-one

>  <JCHEM_VEBER_RULE>  (1) 
0

>  <MOLECULAR_WEIGHT>  (1) 
386.448

>  <PRODUCTS>  (1) 
Inspiolto Respimat; Stiolto Respimat; Striverdi Respimat

>  <SALTS>  (1) 
Olodaterol hydrochloride

>  <SMILES>  (1) 
COC1=CC=C(CC(C)(C)NC[C@H](O)C2=C3OCC(=O)NC3=CC(O)=C2)C=C1

$$$$
