
     RDKit          2D

 49 49  0  0  0  0  0  0  0  0999 V2000
    4.6431    2.0621    0.0000 C   0  0  0  0  0  0  0  0  0  0  0  0
    3.9297    1.6496    0.0000 C   0  0  0  0  0  0  0  0  0  0  0  0
    3.2148    2.0621    0.0000 C   0  0  0  0  0  0  0  0  0  0  0  0
    3.9297    0.8248    0.0000 C   0  0  0  0  0  0  0  0  0  0  0  0
    3.2148    0.4124    0.0000 C   0  0  0  0  0  0  0  0  0  0  0  0
    2.4999    0.8248    0.0000 C   0  0  0  0  0  0  0  0  0  0  0  0
    1.7865    0.4124    0.0000 C   0  0  0  0  0  0  0  0  0  0  0  0
    1.0716    0.8248    0.0000 C   0  0  0  0  0  0  0  0  0  0  0  0
    0.3581    0.4124    0.0000 C   0  0  0  0  0  0  0  0  0  0  0  0
   -0.3567    0.8248    0.0000 C   0  0  0  0  0  0  0  0  0  0  0  0
   -0.3567    1.6496    0.0000 O   0  0  0  0  0  0  0  0  0  0  0  0
   -1.0715    0.4124    0.0000 N   0  0  0  0  0  0  0  0  0  0  0  0
   -1.7851    0.8248    0.0000 C   0  0  0  0  0  0  0  0  0  0  0  0
   -2.4999    0.4124    0.0000 C   0  0  0  0  0  0  0  0  0  0  0  0
   -3.2134    0.8248    0.0000 C   0  0  0  0  0  0  0  0  0  0  0  0
   -3.9283    0.4124    0.0000 C   0  0  0  0  0  0  0  0  0  0  0  0
   -3.9283   -0.4124    0.0000 C   0  0  0  0  0  0  0  0  0  0  0  0
   -3.2134   -0.8248    0.0000 C   0  0  0  0  0  0  0  0  0  0  0  0
   -2.4999   -0.4124    0.0000 C   0  0  0  0  0  0  0  0  0  0  0  0
   -3.2134   -1.6496    0.0000 O   0  0  0  0  0  0  0  0  0  0  0  0
   -3.9283   -2.0621    0.0000 C   0  0  0  0  0  0  0  0  0  0  0  0
   -4.6431   -0.8248    0.0000 O   0  0  0  0  0  0  0  0  0  0  0  0
    0.0000    0.0000    0.0000 H   0  0  0  0  0  0  0  0  0  0  0  0
    0.0000    0.0000    0.0000 H   0  0  0  0  0  0  0  0  0  0  0  0
    0.0000    0.0000    0.0000 H   0  0  0  0  0  0  0  0  0  0  0  0
    0.0000    0.0000    0.0000 H   0  0  0  0  0  0  0  0  0  0  0  0
    0.0000    0.0000    0.0000 H   0  0  0  0  0  0  0  0  0  0  0  0
    0.0000    0.0000    0.0000 H   0  0  0  0  0  0  0  0  0  0  0  0
    0.0000    0.0000    0.0000 H   0  0  0  0  0  0  0  0  0  0  0  0
    0.0000    0.0000    0.0000 H   0  0  0  0  0  0  0  0  0  0  0  0
    0.0000    0.0000    0.0000 H   0  0  0  0  0  0  0  0  0  0  0  0
    0.0000    0.0000    0.0000 H   0  0  0  0  0  0  0  0  0  0  0  0
    0.0000    0.0000    0.0000 H   0  0  0  0  0  0  0  0  0  0  0  0
    0.0000    0.0000    0.0000 H   0  0  0  0  0  0  0  0  0  0  0  0
    0.0000    0.0000    0.0000 H   0  0  0  0  0  0  0  0  0  0  0  0
    0.0000    0.0000    0.0000 H   0  0  0  0  0  0  0  0  0  0  0  0
    0.0000    0.0000    0.0000 H   0  0  0  0  0  0  0  0  0  0  0  0
    0.0000    0.0000    0.0000 H   0  0  0  0  0  0  0  0  0  0  0  0
    0.0000    0.0000    0.0000 H   0  0  0  0  0  0  0  0  0  0  0  0
    0.0000    0.0000    0.0000 H   0  0  0  0  0  0  0  0  0  0  0  0
    0.0000    0.0000    0.0000 H   0  0  0  0  0  0  0  0  0  0  0  0
    0.0000    0.0000    0.0000 H   0  0  0  0  0  0  0  0  0  0  0  0
    0.0000    0.0000    0.0000 H   0  0  0  0  0  0  0  0  0  0  0  0
    0.0000    0.0000    0.0000 H   0  0  0  0  0  0  0  0  0  0  0  0
    0.0000    0.0000    0.0000 H   0  0  0  0  0  0  0  0  0  0  0  0
    0.0000    0.0000    0.0000 H   0  0  0  0  0  0  0  0  0  0  0  0
    0.0000    0.0000    0.0000 H   0  0  0  0  0  0  0  0  0  0  0  0
    0.0000    0.0000    0.0000 H   0  0  0  0  0  0  0  0  0  0  0  0
    0.0000    0.0000    0.0000 H   0  0  0  0  0  0  0  0  0  0  0  0
  1  2  1  0
  2  3  1  0
  2  4  1  0
  4  5  2  0
  5  6  1  0
  6  7  1  0
  7  8  1  0
  8  9  1  0
  9 10  1  0
 10 11  2  0
 10 12  1  0
 12 13  1  0
 13 14  1  0
 14 15  2  0
 14 19  1  0
 15 16  1  0
 16 17  2  0
 17 18  1  0
 17 22  1  0
 18 19  2  0
 18 20  1  0
 20 21  1  0
  1 23  1  0
  1 24  1  0
  1 25  1  0
  2 26  1  0
  3 27  1  0
  3 28  1  0
  3 29  1  0
  4 30  1  0
  5 31  1  0
  6 32  1  0
  6 33  1  0
  7 34  1  0
  7 35  1  0
  8 36  1  0
  8 37  1  0
  9 38  1  0
  9 39  1  0
 12 40  1  0
 13 41  1  0
 13 42  1  0
 15 43  1  0
 16 44  1  0
 19 45  1  0
 21 46  1  0
 21 47  1  0
 21 48  1  0
 22 49  1  0
M  END
>  <ALOGPS_LOGP>  (1) 
3.80

>  <ALOGPS_LOGS>  (1) 
-4.56

>  <ALOGPS_SOLUBILITY>  (1) 
8.41e-03 g/l

>  <DATABASE_ID>  (1) 
DB09120

>  <DATABASE_NAME>  (1) 
drugbank

>  <DRUGBANK_ID>  (1) 
DB09120

>  <DRUG_GROUPS>  (1) 
approved

>  <EXACT_MASS>  (1) 
305.199093735

>  <FORMULA>  (1) 
C18H27NO3

>  <GENERIC_NAME>  (1) 
Zucapsaicin

>  <INCHI_IDENTIFIER>  (1) 
InChI=1S/C18H27NO3/c1-14(2)8-6-4-5-7-9-18(21)19-13-15-10-11-16(20)17(12-15)22-3/h6,8,10-12,14,20H,4-5,7,9,13H2,1-3H3,(H,19,21)/b8-6-

>  <INCHI_KEY>  (1) 
YKPUWZUDDOIDPM-VURMDHGXSA-N

>  <INTERNATIONAL_BRANDS>  (1) 
Civanex

>  <JCHEM_ACCEPTOR_COUNT>  (1) 
3

>  <JCHEM_AVERAGE_POLARIZABILITY>  (1) 
35.34035414843711

>  <JCHEM_BIOAVAILABILITY>  (1) 
1

>  <JCHEM_DONOR_COUNT>  (1) 
2

>  <JCHEM_FORMAL_CHARGE>  (1) 
0

>  <JCHEM_GHOSE_FILTER>  (1) 
1

>  <JCHEM_IUPAC>  (1) 
(6Z)-N-[(4-hydroxy-3-methoxyphenyl)methyl]-8-methylnon-6-enamide

>  <JCHEM_LOGP>  (1) 
3.7496695443333334

>  <JCHEM_MDDR_LIKE_RULE>  (1) 
0

>  <JCHEM_NUMBER_OF_RINGS>  (1) 
1

>  <JCHEM_PHYSIOLOGICAL_CHARGE>  (1) 
0

>  <JCHEM_PKA>  (1) 
15.950140339612052

>  <JCHEM_PKA_STRONGEST_ACIDIC>  (1) 
9.928691716239767

>  <JCHEM_PKA_STRONGEST_BASIC>  (1) 
-0.5195533412013454

>  <JCHEM_POLAR_SURFACE_AREA>  (1) 
58.56

>  <JCHEM_REFRACTIVITY>  (1) 
90.3174

>  <JCHEM_ROTATABLE_BOND_COUNT>  (1) 
9

>  <JCHEM_RULE_OF_FIVE>  (1) 
1

>  <JCHEM_TRADITIONAL_IUPAC>  (1) 
zucapsaicin

>  <JCHEM_VEBER_RULE>  (1) 
0

>  <MOLECULAR_WEIGHT>  (1) 
305.4119

>  <PRODUCTS>  (1) 
Zuacta

>  <SMILES>  (1) 
COC1=C(O)C=CC(CNC(=O)CCCC\C=C/C(C)C)=C1

>  <SYNONYMS>  (1) 
(Z)-Capsaicin; cis-Capsaicin; Civamide

$$$$
