
     RDKit          2D

 57 57  0  0  0  0  0  0  0  0999 V2000
    0.7111    1.2376    0.0000 C   0  0  0  0  0  0  0  0  0  0  0  0
    1.4275    1.6500    0.0000 N   0  0  0  0  0  0  0  0  0  0  0  0
   -0.0041    1.6518    0.0000 O   0  0  0  0  0  0  0  0  0  0  0  0
    2.1385    1.2376    0.0000 C   0  0  0  0  0  0  0  0  0  0  0  0
    2.8524    1.6509    0.0000 C   0  0  0  0  0  0  0  0  0  0  0  0
    3.5664    1.2376    0.0000 C   0  0  0  0  0  0  0  0  0  0  0  0
    4.2803    1.6509    0.0000 O   0  0  0  0  0  0  0  0  0  0  0  0
    2.8524    2.4776    0.0000 O   0  0  0  0  0  0  0  0  0  0  0  0
    0.7105    0.4151    0.0000 C   0  0  0  0  0  0  0  0  0  0  0  0
    1.4287    0.0018    0.0000 C   0  0  0  0  0  0  0  0  0  0  0  0
    1.4287   -0.8248    0.0000 C   0  0  0  0  0  0  0  0  0  0  0  0
    0.7110   -1.2381    0.0000 C   0  0  0  0  0  0  0  0  0  0  0  0
   -0.0023   -0.8248    0.0000 C   0  0  0  0  0  0  0  0  0  0  0  0
   -0.0023    0.0018    0.0000 C   0  0  0  0  0  0  0  0  0  0  0  0
    0.7100   -2.0647    0.0000 I   0  0  0  0  0  0  0  0  0  0  0  0
   -0.7186    0.4146    0.0000 I   0  0  0  0  0  0  0  0  0  0  0  0
    2.1444    0.4154    0.0000 I   0  0  0  0  0  0  0  0  0  0  0  0
   -0.7186   -1.2376    0.0000 C   0  0  0  0  0  0  0  0  0  0  0  0
   -1.4312   -0.8206    0.0000 N   0  0  0  0  0  0  0  0  0  0  0  0
   -2.1451   -1.2340    0.0000 C   0  0  0  0  0  0  0  0  0  0  0  0
   -2.8591   -0.8206    0.0000 C   0  0  0  0  0  0  0  0  0  0  0  0
   -3.5730   -1.2340    0.0000 C   0  0  0  0  0  0  0  0  0  0  0  0
   -4.2870   -0.8206    0.0000 O   0  0  0  0  0  0  0  0  0  0  0  0
   -0.6800   -2.0643    0.0000 O   0  0  0  0  0  0  0  0  0  0  0  0
   -2.8591    0.0059    0.0000 O   0  0  0  0  0  0  0  0  0  0  0  0
    2.1426   -1.2381    0.0000 N   0  0  0  0  0  0  0  0  0  0  0  0
    2.8566   -0.8290    0.0000 C   0  0  0  0  0  0  0  0  0  0  0  0
    3.5705   -1.2423    0.0000 C   0  0  0  0  0  0  0  0  0  0  0  0
    2.1384   -2.0607    0.0000 C   0  0  0  0  0  0  0  0  0  0  0  0
    1.4205   -2.4704    0.0000 O   0  0  0  0  0  0  0  0  0  0  0  0
    2.8523   -2.4776    0.0000 C   0  0  0  0  0  0  0  0  0  0  0  0
    4.2870   -0.8298    0.0000 O   0  0  0  0  0  0  0  0  0  0  0  0
    3.5764   -2.0644    0.0000 O   0  0  0  0  0  0  0  0  0  0  0  0
    0.0000    0.0000    0.0000 H   0  0  0  0  0  0  0  0  0  0  0  0
    0.0000    0.0000    0.0000 H   0  0  0  0  0  0  0  0  0  0  0  0
    0.0000    0.0000    0.0000 H   0  0  0  0  0  0  0  0  0  0  0  0
    0.0000    0.0000    0.0000 H   0  0  0  0  0  0  0  0  0  0  0  0
    0.0000    0.0000    0.0000 H   0  0  0  0  0  0  0  0  0  0  0  0
    0.0000    0.0000    0.0000 H   0  0  0  0  0  0  0  0  0  0  0  0
    0.0000    0.0000    0.0000 H   0  0  0  0  0  0  0  0  0  0  0  0
    0.0000    0.0000    0.0000 H   0  0  0  0  0  0  0  0  0  0  0  0
    0.0000    0.0000    0.0000 H   0  0  0  0  0  0  0  0  0  0  0  0
    0.0000    0.0000    0.0000 H   0  0  0  0  0  0  0  0  0  0  0  0
    0.0000    0.0000    0.0000 H   0  0  0  0  0  0  0  0  0  0  0  0
    0.0000    0.0000    0.0000 H   0  0  0  0  0  0  0  0  0  0  0  0
    0.0000    0.0000    0.0000 H   0  0  0  0  0  0  0  0  0  0  0  0
    0.0000    0.0000    0.0000 H   0  0  0  0  0  0  0  0  0  0  0  0
    0.0000    0.0000    0.0000 H   0  0  0  0  0  0  0  0  0  0  0  0
    0.0000    0.0000    0.0000 H   0  0  0  0  0  0  0  0  0  0  0  0
    0.0000    0.0000    0.0000 H   0  0  0  0  0  0  0  0  0  0  0  0
    0.0000    0.0000    0.0000 H   0  0  0  0  0  0  0  0  0  0  0  0
    0.0000    0.0000    0.0000 H   0  0  0  0  0  0  0  0  0  0  0  0
    0.0000    0.0000    0.0000 H   0  0  0  0  0  0  0  0  0  0  0  0
    0.0000    0.0000    0.0000 H   0  0  0  0  0  0  0  0  0  0  0  0
    0.0000    0.0000    0.0000 H   0  0  0  0  0  0  0  0  0  0  0  0
    0.0000    0.0000    0.0000 H   0  0  0  0  0  0  0  0  0  0  0  0
    0.0000    0.0000    0.0000 H   0  0  0  0  0  0  0  0  0  0  0  0
  6  7  1  0
  5  8  1  0
  9  1  1  0
  1  2  1  0
  1  3  2  0
  2  4  1  0
  4  5  1  0
 11 12  1  0
 21 25  1  0
 10 17  1  0
 11 26  1  0
 12 13  2  0
 26 27  1  0
 13 18  1  0
 27 28  1  0
 13 14  1  0
 18 19  1  0
 14  9  2  0
 19 20  1  0
  9 10  1  0
 20 21  1  0
 21 22  1  0
 12 15  1  0
 22 23  1  0
 10 11  2  0
 18 24  2  0
 14 16  1  0
 26 29  1  0
 29 30  2  0
 29 31  1  0
  5  6  1  0
 28 32  1  0
 31 33  1  0
  2 34  1  0
  4 35  1  0
  4 36  1  0
  5 37  1  0
  6 38  1  0
  6 39  1  0
  7 40  1  0
  8 41  1  0
 19 42  1  0
 20 43  1  0
 20 44  1  0
 21 45  1  0
 22 46  1  0
 22 47  1  0
 23 48  1  0
 25 49  1  0
 27 50  1  0
 27 51  1  0
 28 52  1  0
 28 53  1  0
 31 54  1  0
 31 55  1  0
 32 56  1  0
 33 57  1  0
M  END
>  <ALOGPS_LOGP>  (1) 
-2.98

>  <ALOGPS_LOGS>  (1) 
-2.89

>  <ALOGPS_SOLUBILITY>  (1) 
1.04e+00 g/l

>  <DATABASE_ID>  (1) 
DB09134

>  <DATABASE_NAME>  (1) 
drugbank

>  <DRUGBANK_ID>  (1) 
DB09134

>  <DRUG_GROUPS>  (1) 
approved

>  <EXACT_MASS>  (1) 
806.86466

>  <FORMULA>  (1) 
C18H24I3N3O9

>  <GENERIC_NAME>  (1) 
Ioversol

>  <INCHI_IDENTIFIER>  (1) 
InChI=1S/C18H24I3N3O9/c19-13-11(17(32)22-3-8(29)5-26)14(20)16(24(1-2-25)10(31)7-28)15(21)12(13)18(33)23-4-9(30)6-27/h8-9,25-30H,1-7H2,(H,22,32)(H,23,33)

>  <INCHI_KEY>  (1) 
AMDBBAQNWSUWGN-UHFFFAOYSA-N

>  <JCHEM_ACCEPTOR_COUNT>  (1) 
9

>  <JCHEM_ATOM_COUNT>  (1) 
57

>  <JCHEM_AVERAGE_POLARIZABILITY>  (1) 
58.310495294120315

>  <JCHEM_BIOAVAILABILITY>  (1) 
0

>  <JCHEM_DONOR_COUNT>  (1) 
8

>  <JCHEM_FORMAL_CHARGE>  (1) 
0

>  <JCHEM_GHOSE_FILTER>  (1) 
0

>  <JCHEM_IUPAC>  (1) 
N1,N3-bis(2,3-dihydroxypropyl)-5-[2-hydroxy-N-(2-hydroxyethyl)acetamido]-2,4,6-triiodobenzene-1,3-dicarboxamide

>  <JCHEM_LOGP>  (1) 
-2.1377355589999993

>  <JCHEM_MDDR_LIKE_RULE>  (1) 
0

>  <JCHEM_NUMBER_OF_RINGS>  (1) 
1

>  <JCHEM_PHYSIOLOGICAL_CHARGE>  (1) 
0

>  <JCHEM_PKA>  (1) 
12.60745938995682

>  <JCHEM_PKA_STRONGEST_ACIDIC>  (1) 
11.72407999261487

>  <JCHEM_PKA_STRONGEST_BASIC>  (1) 
-2.5540463302144607

>  <JCHEM_POLAR_SURFACE_AREA>  (1) 
199.89

>  <JCHEM_REFRACTIVITY>  (1) 
144.57870000000005

>  <JCHEM_ROTATABLE_BOND_COUNT>  (1) 
12

>  <JCHEM_RULE_OF_FIVE>  (1) 
0

>  <JCHEM_TRADITIONAL_IUPAC>  (1) 
ioversol

>  <JCHEM_VEBER_RULE>  (1) 
0

>  <MOLECULAR_WEIGHT>  (1) 
807.115

>  <PRODUCTS>  (1) 
Optiray 160; Optiray 160 (ultraject); Optiray 240; Optiray 240 (ultraject); Optiray 300; Optiray 300 (ultraject); Optiray 320; Optiray 320 (ultraject); Optiray 350; Optiray 350 (ultraject)

>  <SMILES>  (1) 
OCCN(C(=O)CO)C1=C(I)C(C(=O)NCC(O)CO)=C(I)C(C(=O)NCC(O)CO)=C1I

>  <SYNONYMS>  (1) 
N,N'-Bis (2,3-dihydroxypropyl)-5-[N-(2-hydroxyethyl) -glycolamido] -2,4,6-triiodoisophthalamide; Optiray

$$$$
