
     RDKit          2D

  9  8  0  0  0  0  0  0  0  0999 V2000
   -0.0000    1.0779    0.0000 S   0  0  0  0  0  0  0  0  0  0  0  0
    0.7622    0.7622    0.0000 S   0  0  0  0  0  0  0  0  0  0  0  0
    1.0779    0.0000    0.0000 S   0  0  0  0  0  0  0  0  0  0  0  0
    0.7622   -0.7622    0.0000 S   0  0  0  0  0  0  0  0  0  0  0  0
    0.0000   -1.0779    0.0000 S   0  0  0  0  0  0  0  0  0  0  0  0
   -0.7622   -0.7622    0.0000 S   0  0  0  0  0  0  0  0  0  0  0  0
   -1.0779   -0.0000    0.0000 S   0  0  0  0  0  0  0  0  0  0  0  0
   -0.7622    0.7622    0.0000 S   0  0  0  0  0  0  0  0  0  0  0  0
    3.5529    0.0000    0.0000 Tc  0  0  0  0  0  0  0  0  0  0  0  0
  1  2  1  0
  2  3  1  0
  3  4  1  0
  4  5  1  0
  5  6  1  0
  6  7  1  0
  7  8  1  0
  1  8  1  0
M  ISO  1   9  99
M  END
>  <ALOGPS_LOGP>  (1) 
0.82

>  <ALOGPS_LOGS>  (1) 
-2.63

>  <ALOGPS_SOLUBILITY>  (1) 
6.08e-01 g/l

>  <DATABASE_ID>  (1) 
DB09397

>  <DATABASE_NAME>  (1) 
drugbank

>  <DRUGBANK_ID>  (1) 
DB09397

>  <DRUG_GROUPS>  (1) 
approved

>  <EXACT_MASS>  (1) 
354.682823946

>  <FORMULA>  (1) 
S8Tc

>  <GENERIC_NAME>  (1) 
Technetium Tc-99m sulfur colloid

>  <INCHI_IDENTIFIER>  (1) 
InChI=1S/S8.Tc/c1-2-4-6-8-7-5-3-1;/i;1+2

>  <INCHI_KEY>  (1) 
FJTPHHNWVXNMEK-NLQOEHMXSA-N

>  <JCHEM_ACCEPTOR_COUNT>  (1) 
0

>  <JCHEM_ATOM_COUNT>  (1) 
9

>  <JCHEM_AVERAGE_POLARIZABILITY>  (1) 
20.404449707298987

>  <JCHEM_BIOAVAILABILITY>  (1) 
1

>  <JCHEM_DONOR_COUNT>  (1) 
0

>  <JCHEM_FORMAL_CHARGE>  (1) 
0

>  <JCHEM_GHOSE_FILTER>  (1) 
0

>  <JCHEM_IUPAC>  (1) 
octathiocane (99Tc)technetium

>  <JCHEM_LOGP>  (1) 
4.755188349333333

>  <JCHEM_MDDR_LIKE_RULE>  (1) 
0

>  <JCHEM_NUMBER_OF_RINGS>  (1) 
1

>  <JCHEM_PHYSIOLOGICAL_CHARGE>  (1) 
0

>  <JCHEM_POLAR_SURFACE_AREA>  (1) 
0.0

>  <JCHEM_REFRACTIVITY>  (1) 
46.0464

>  <JCHEM_ROTATABLE_BOND_COUNT>  (1) 
0

>  <JCHEM_RULE_OF_FIVE>  (1) 
1

>  <JCHEM_TRADITIONAL_IUPAC>  (1) 
cyclooctasulfur (99Tc)technetium

>  <JCHEM_VEBER_RULE>  (1) 
1

>  <MOLECULAR_WEIGHT>  (1) 
355.39

>  <PRODUCTS>  (1) 
Kit for the Prepartion of Technetium Tc99m Sulfur Colloid

>  <SMILES>  (1) 
[99Tc].S1SSSSSSS1

>  <SYNONYMS>  (1) 
Technetium (99mTc) sulfur colloid; Technetium 99m sulfur colloid; Technetium Tc 99m sulfur colloid; Technetium Tc-99m Sulfur Colloid

$$$$
