
     RDKit          2D

 63 63  0  0  0  0  0  0  0  0999 V2000
   -2.5803   -0.4124    0.0000 C   0  0  0  0  0  0  0  0  0  0  0  0
   -2.5803    0.4125    0.0000 C   0  0  0  0  0  0  0  0  0  0  0  0
   -3.3649    0.6674    0.0000 C   0  0  0  0  0  0  0  0  0  0  0  0
   -3.8498    0.0000    0.0000 C   0  0  0  0  0  0  0  0  0  0  0  0
   -3.3649   -0.6673    0.0000 C   0  0  0  0  0  0  0  0  0  0  0  0
   -3.6176    1.4450    0.0000 O   0  0  0  0  0  0  0  0  0  0  0  0
   -3.6176   -1.4450    0.0000 O   0  0  0  0  0  0  0  0  0  0  0  0
   -1.8658    0.8250    0.0000 C   0  0  0  0  0  0  0  0  0  0  0  0
   -1.1513    0.4125    0.0000 C   0  0  0  0  0  0  0  0  0  0  0  0
   -0.4369    0.8250    0.0000 C   0  0  0  0  0  0  0  0  0  0  0  0
    0.2775    0.4125    0.0000 C   0  0  0  0  0  0  0  0  0  0  0  0
    0.9920    0.8250    0.0000 C   0  0  0  0  0  0  0  0  0  0  0  0
    1.7064    0.4125    0.0000 C   0  0  0  0  0  0  0  0  0  0  0  0
    2.4209    0.8250    0.0000 C   0  0  0  0  0  0  0  0  0  0  0  0
    3.1354    0.4125    0.0000 O   0  0  0  0  0  0  0  0  0  0  0  0
   -1.8658   -0.8249    0.0000 C   0  0  0  0  0  0  0  0  0  0  0  0
   -1.1513   -0.4124    0.0000 C   0  0  0  0  0  0  0  0  0  0  0  0
   -0.4369   -0.8249    0.0000 C   0  0  0  0  0  0  0  0  0  0  0  0
    0.2775   -0.4124    0.0000 C   0  0  0  0  0  0  0  0  0  0  0  0
    0.9920   -0.8249    0.0000 C   0  0  0  0  0  0  0  0  0  0  0  0
    1.7064   -0.4124    0.0000 C   0  0  0  0  0  0  0  0  0  0  0  0
    2.4209   -0.8249    0.0000 C   0  0  0  0  0  0  0  0  0  0  0  0
    3.1354   -0.4124    0.0000 C   0  0  0  0  0  0  0  0  0  0  0  0
    3.8498   -0.8249    0.0000 C   0  0  0  0  0  0  0  0  0  0  0  0
    2.4209    1.6499    0.0000 O   0  0  0  0  0  0  0  0  0  0  0  0
   -0.4369   -1.6499    0.0000 O   0  0  0  0  0  0  0  0  0  0  0  0
    0.9920   -1.6497    0.0000 C   0  0  0  0  0  0  0  0  0  0  0  0
    0.0000    0.0000    0.0000 H   0  0  0  0  0  0  0  0  0  0  0  0
    0.0000    0.0000    0.0000 H   0  0  0  0  0  0  0  0  0  0  0  0
    0.0000    0.0000    0.0000 H   0  0  0  0  0  0  0  0  0  0  0  0
    0.0000    0.0000    0.0000 H   0  0  0  0  0  0  0  0  0  0  0  0
    0.0000    0.0000    0.0000 H   0  0  0  0  0  0  0  0  0  0  0  0
    0.0000    0.0000    0.0000 H   0  0  0  0  0  0  0  0  0  0  0  0
    0.0000    0.0000    0.0000 H   0  0  0  0  0  0  0  0  0  0  0  0
    0.0000    0.0000    0.0000 H   0  0  0  0  0  0  0  0  0  0  0  0
    0.0000    0.0000    0.0000 H   0  0  0  0  0  0  0  0  0  0  0  0
    0.0000    0.0000    0.0000 H   0  0  0  0  0  0  0  0  0  0  0  0
    0.0000    0.0000    0.0000 H   0  0  0  0  0  0  0  0  0  0  0  0
    0.0000    0.0000    0.0000 H   0  0  0  0  0  0  0  0  0  0  0  0
    0.0000    0.0000    0.0000 H   0  0  0  0  0  0  0  0  0  0  0  0
    0.0000    0.0000    0.0000 H   0  0  0  0  0  0  0  0  0  0  0  0
    0.0000    0.0000    0.0000 H   0  0  0  0  0  0  0  0  0  0  0  0
    0.0000    0.0000    0.0000 H   0  0  0  0  0  0  0  0  0  0  0  0
    0.0000    0.0000    0.0000 H   0  0  0  0  0  0  0  0  0  0  0  0
    0.0000    0.0000    0.0000 H   0  0  0  0  0  0  0  0  0  0  0  0
    0.0000    0.0000    0.0000 H   0  0  0  0  0  0  0  0  0  0  0  0
    0.0000    0.0000    0.0000 H   0  0  0  0  0  0  0  0  0  0  0  0
    0.0000    0.0000    0.0000 H   0  0  0  0  0  0  0  0  0  0  0  0
    0.0000    0.0000    0.0000 H   0  0  0  0  0  0  0  0  0  0  0  0
    0.0000    0.0000    0.0000 H   0  0  0  0  0  0  0  0  0  0  0  0
    0.0000    0.0000    0.0000 H   0  0  0  0  0  0  0  0  0  0  0  0
    0.0000    0.0000    0.0000 H   0  0  0  0  0  0  0  0  0  0  0  0
    0.0000    0.0000    0.0000 H   0  0  0  0  0  0  0  0  0  0  0  0
    0.0000    0.0000    0.0000 H   0  0  0  0  0  0  0  0  0  0  0  0
    0.0000    0.0000    0.0000 H   0  0  0  0  0  0  0  0  0  0  0  0
    0.0000    0.0000    0.0000 H   0  0  0  0  0  0  0  0  0  0  0  0
    0.0000    0.0000    0.0000 H   0  0  0  0  0  0  0  0  0  0  0  0
    0.0000    0.0000    0.0000 H   0  0  0  0  0  0  0  0  0  0  0  0
    0.0000    0.0000    0.0000 H   0  0  0  0  0  0  0  0  0  0  0  0
    0.0000    0.0000    0.0000 H   0  0  0  0  0  0  0  0  0  0  0  0
    0.0000    0.0000    0.0000 H   0  0  0  0  0  0  0  0  0  0  0  0
    0.0000    0.0000    0.0000 H   0  0  0  0  0  0  0  0  0  0  0  0
    0.0000    0.0000    0.0000 H   0  0  0  0  0  0  0  0  0  0  0  0
  1  2  1  0
  2  3  1  0
  3  4  1  0
  4  5  1  0
  1  5  1  0
  3  6  2  0
  5  7  1  6
  2  8  1  6
  8  9  1  0
  9 10  1  0
 10 11  1  0
 11 12  1  0
 12 13  2  0
 13 14  1  0
 14 15  1  0
  1 16  1  1
 16 17  2  0
 18 17  1  6
 18 19  1  0
 20 19  1  6
 20 21  1  0
 21 22  1  0
 22 23  1  0
 23 24  1  0
 14 25  2  0
 18 26  1  0
 20 27  1  0
  1 28  1  0
  2 29  1  0
  4 30  1  0
  4 31  1  0
  5 32  1  0
  7 33  1  0
  8 34  1  0
  8 35  1  0
  9 36  1  0
  9 37  1  0
 10 38  1  0
 10 39  1  0
 11 40  1  0
 11 41  1  0
 12 42  1  0
 13 43  1  0
 15 44  1  0
 16 45  1  0
 17 46  1  0
 18 47  1  0
 19 48  1  0
 19 49  1  0
 20 50  1  0
 21 51  1  0
 21 52  1  0
 22 53  1  0
 22 54  1  0
 23 55  1  0
 23 56  1  0
 24 57  1  0
 24 58  1  0
 24 59  1  0
 26 60  1  0
 27 61  1  0
 27 62  1  0
 27 63  1  0
M  END
>  <ALOGPS_LOGP>  (1) 
4.03

>  <ALOGPS_LOGS>  (1) 
-4.19

>  <ALOGPS_SOLUBILITY>  (1) 
2.48e-02 g/l

>  <DATABASE_ID>  (1) 
DB09211

>  <DATABASE_NAME>  (1) 
drugbank

>  <DRUGBANK_ID>  (1) 
DB09211

>  <DRUG_GROUPS>  (1) 
approved; investigational

>  <EXACT_MASS>  (1) 
380.256274259

>  <FORMULA>  (1) 
C22H36O5

>  <GENERIC_NAME>  (1) 
Limaprost

>  <INCHI_IDENTIFIER>  (1) 
InChI=1S/C22H36O5/c1-3-4-9-16(2)14-17(23)12-13-19-18(20(24)15-21(19)25)10-7-5-6-8-11-22(26)27/h8,11-13,16-19,21,23,25H,3-7,9-10,14-15H2,1-2H3,(H,26,27)/b11-8+,13-12+/t16-,17+,18+,19+,21+/m0/s1

>  <INCHI_KEY>  (1) 
OJZYRQPMEIEQFC-UAWLTFRCSA-N

>  <INTERNATIONAL_BRANDS>  (1) 
Opalmon; Prorenal

>  <JCHEM_ACCEPTOR_COUNT>  (1) 
5

>  <JCHEM_ATOM_COUNT>  (1) 
63

>  <JCHEM_AVERAGE_POLARIZABILITY>  (1) 
45.223300099906005

>  <JCHEM_BIOAVAILABILITY>  (1) 
1

>  <JCHEM_DONOR_COUNT>  (1) 
3

>  <JCHEM_FORMAL_CHARGE>  (1) 
0

>  <JCHEM_GHOSE_FILTER>  (1) 
1

>  <JCHEM_IUPAC>  (1) 
(2E)-7-[(1R,2R,3R)-3-hydroxy-2-[(1E,3S,5S)-3-hydroxy-5-methylnon-1-en-1-yl]-5-oxocyclopentyl]hept-2-enoic acid

>  <JCHEM_LOGP>  (1) 
4.316603044666667

>  <JCHEM_MDDR_LIKE_RULE>  (1) 
0

>  <JCHEM_NUMBER_OF_RINGS>  (1) 
1

>  <JCHEM_PHYSIOLOGICAL_CHARGE>  (1) 
-1

>  <JCHEM_PKA>  (1) 
14.680474089166317

>  <JCHEM_PKA_STRONGEST_ACIDIC>  (1) 
4.443187933160858

>  <JCHEM_PKA_STRONGEST_BASIC>  (1) 
-1.4858760815986902

>  <JCHEM_POLAR_SURFACE_AREA>  (1) 
94.83

>  <JCHEM_REFRACTIVITY>  (1) 
108.56139999999998

>  <JCHEM_ROTATABLE_BOND_COUNT>  (1) 
13

>  <JCHEM_RULE_OF_FIVE>  (1) 
1

>  <JCHEM_TRADITIONAL_IUPAC>  (1) 
limaprost

>  <JCHEM_VEBER_RULE>  (1) 
0

>  <MOLECULAR_WEIGHT>  (1) 
380.525

>  <SMILES>  (1) 
CCCC[C@H](C)C[C@H](O)\C=C\[C@H]1[C@H](O)CC(=O)[C@@H]1CCCC\C=C\C(O)=O

>  <SYNONYMS>  (1) 
Limaprost alfadex

$$$$
