
     RDKit          2D

 39 39  0  0  0  0  0  0  0  0999 V2000
   -0.3572   -0.8294    0.0000 O   0  0  0  0  0  0  0  0  0  0  0  0
   -1.0635    0.4167    0.0000 O   0  0  0  0  0  0  0  0  0  0  0  0
    3.2620   -0.4167    0.0000 O   0  0  0  0  0  0  0  0  0  0  0  0
    2.5160    0.8294    0.0000 N   0  0  0  0  0  0  0  0  0  0  0  0
   -2.5160   -0.4167    0.0000 N   0  0  0  0  0  0  0  0  0  0  0  0
    0.3968   -0.4167    0.0000 C   0  0  0  0  0  0  0  0  0  0  0  0
    1.8096    0.4167    0.0000 C   0  0  0  0  0  0  0  0  0  0  0  0
   -1.0635   -0.4167    0.0000 C   0  0  0  0  0  0  0  0  0  0  0  0
    1.1032   -0.8294    0.0000 C   0  0  0  0  0  0  0  0  0  0  0  0
    0.3968    0.4167    0.0000 C   0  0  0  0  0  0  0  0  0  0  0  0
    1.8096   -0.4167    0.0000 C   0  0  0  0  0  0  0  0  0  0  0  0
    1.1032    0.8294    0.0000 C   0  0  0  0  0  0  0  0  0  0  0  0
   -1.8096   -0.8294    0.0000 C   0  0  0  0  0  0  0  0  0  0  0  0
    3.2620    0.4167    0.0000 C   0  0  0  0  0  0  0  0  0  0  0  0
   -3.2224   -0.8294    0.0000 C   0  0  0  0  0  0  0  0  0  0  0  0
   -2.5160    0.4167    0.0000 C   0  0  0  0  0  0  0  0  0  0  0  0
    3.9684    0.8294    0.0000 C   0  0  0  0  0  0  0  0  0  0  0  0
   -3.9684   -0.4167    0.0000 C   0  0  0  0  0  0  0  0  0  0  0  0
   -3.2303    0.8294    0.0000 C   0  0  0  0  0  0  0  0  0  0  0  0
    0.0000    0.0000    0.0000 H   0  0  0  0  0  0  0  0  0  0  0  0
    0.0000    0.0000    0.0000 H   0  0  0  0  0  0  0  0  0  0  0  0
    0.0000    0.0000    0.0000 H   0  0  0  0  0  0  0  0  0  0  0  0
    0.0000    0.0000    0.0000 H   0  0  0  0  0  0  0  0  0  0  0  0
    0.0000    0.0000    0.0000 H   0  0  0  0  0  0  0  0  0  0  0  0
    0.0000    0.0000    0.0000 H   0  0  0  0  0  0  0  0  0  0  0  0
    0.0000    0.0000    0.0000 H   0  0  0  0  0  0  0  0  0  0  0  0
    0.0000    0.0000    0.0000 H   0  0  0  0  0  0  0  0  0  0  0  0
    0.0000    0.0000    0.0000 H   0  0  0  0  0  0  0  0  0  0  0  0
    0.0000    0.0000    0.0000 H   0  0  0  0  0  0  0  0  0  0  0  0
    0.0000    0.0000    0.0000 H   0  0  0  0  0  0  0  0  0  0  0  0
    0.0000    0.0000    0.0000 H   0  0  0  0  0  0  0  0  0  0  0  0
    0.0000    0.0000    0.0000 H   0  0  0  0  0  0  0  0  0  0  0  0
    0.0000    0.0000    0.0000 H   0  0  0  0  0  0  0  0  0  0  0  0
    0.0000    0.0000    0.0000 H   0  0  0  0  0  0  0  0  0  0  0  0
    0.0000    0.0000    0.0000 H   0  0  0  0  0  0  0  0  0  0  0  0
    0.0000    0.0000    0.0000 H   0  0  0  0  0  0  0  0  0  0  0  0
    0.0000    0.0000    0.0000 H   0  0  0  0  0  0  0  0  0  0  0  0
    0.0000    0.0000    0.0000 H   0  0  0  0  0  0  0  0  0  0  0  0
    0.0000    0.0000    0.0000 H   0  0  0  0  0  0  0  0  0  0  0  0
  1  6  1  0
  1  8  1  0
  2  8  2  0
  3 14  2  0
  4  7  1  0
  4 14  1  0
  5 13  1  0
  5 15  1  0
  5 16  1  0
  6  9  2  0
  6 10  1  0
  7 11  2  0
  7 12  1  0
  8 13  1  0
  9 11  1  0
 10 12  2  0
 14 17  1  0
 15 18  1  0
 16 19  1  0
  4 20  1  0
  9 21  1  0
 10 22  1  0
 11 23  1  0
 12 24  1  0
 13 25  1  0
 13 26  1  0
 15 27  1  0
 15 28  1  0
 16 29  1  0
 16 30  1  0
 17 31  1  0
 17 32  1  0
 17 33  1  0
 18 34  1  0
 18 35  1  0
 18 36  1  0
 19 37  1  0
 19 38  1  0
 19 39  1  0
M  END
>  <ALOGPS_LOGP>  (1) 
1.96

>  <ALOGPS_LOGS>  (1) 
-2.71

>  <ALOGPS_SOLUBILITY>  (1) 
5.13e-01 g/l

>  <DATABASE_ID>  (1) 
DB09288

>  <DATABASE_NAME>  (1) 
drugbank

>  <DRUGBANK_ID>  (1) 
DB09288

>  <DRUG_GROUPS>  (1) 
approved; investigational

>  <EXACT_MASS>  (1) 
264.147392512

>  <FORMULA>  (1) 
C14H20N2O3

>  <GENERIC_NAME>  (1) 
Propacetamol

>  <INCHI_IDENTIFIER>  (1) 
InChI=1S/C14H20N2O3/c1-4-16(5-2)10-14(18)19-13-8-6-12(7-9-13)15-11(3)17/h6-9H,4-5,10H2,1-3H3,(H,15,17)

>  <INCHI_KEY>  (1) 
QTGAJCQTLIRCFL-UHFFFAOYSA-N

>  <JCHEM_ACCEPTOR_COUNT>  (1) 
3

>  <JCHEM_ATOM_COUNT>  (1) 
39

>  <JCHEM_AVERAGE_POLARIZABILITY>  (1) 
29.173396974390442

>  <JCHEM_BIOAVAILABILITY>  (1) 
1

>  <JCHEM_DONOR_COUNT>  (1) 
1

>  <JCHEM_FORMAL_CHARGE>  (1) 
0

>  <JCHEM_GHOSE_FILTER>  (1) 
1

>  <JCHEM_IUPAC>  (1) 
4-acetamidophenyl 2-(diethylamino)acetate

>  <JCHEM_LOGP>  (1) 
1.4233315553333334

>  <JCHEM_MDDR_LIKE_RULE>  (1) 
0

>  <JCHEM_NUMBER_OF_RINGS>  (1) 
1

>  <JCHEM_PHYSIOLOGICAL_CHARGE>  (1) 
1

>  <JCHEM_PKA_STRONGEST_ACIDIC>  (1) 
14.668609162767098

>  <JCHEM_PKA_STRONGEST_BASIC>  (1) 
6.834623347881453

>  <JCHEM_POLAR_SURFACE_AREA>  (1) 
58.64000000000001

>  <JCHEM_REFRACTIVITY>  (1) 
74.9796

>  <JCHEM_ROTATABLE_BOND_COUNT>  (1) 
7

>  <JCHEM_RULE_OF_FIVE>  (1) 
1

>  <JCHEM_TRADITIONAL_IUPAC>  (1) 
propacetamol

>  <JCHEM_VEBER_RULE>  (1) 
0

>  <MOLECULAR_WEIGHT>  (1) 
264.325

>  <SALTS>  (1) 
Propacetamol hydrochloride

>  <SMILES>  (1) 
CCN(CC)CC(=O)OC1=CC=C(NC(C)=O)C=C1

$$$$
