
     RDKit          2D

 33 30  0  0  0  0  0  0  0  0999 V2000
   -1.0992   -2.0625    0.0000 P   0  0  0  0  0  0  0  0  0  0  0  0
   -1.0992    2.0625    0.0000 P   0  0  0  0  0  0  0  0  0  0  0  0
   -1.8137   -3.3000    0.0000 Na  0  0  0  0  0  0  0  0  0  0  0  0
    0.1382   -2.7770    0.0000 Na  0  0  0  0  0  0  0  0  0  0  0  0
   -1.8137    3.3000    0.0000 Na  0  0  0  0  0  0  0  0  0  0  0  0
    0.1382    2.7770    0.0000 Na  0  0  0  0  0  0  0  0  0  0  0  0
   -0.3848   -1.6500    0.0000 O   0  0  0  0  0  0  0  0  0  0  0  0
   -0.3848    1.6500    0.0000 O   0  0  0  0  0  0  0  0  0  0  0  0
   -1.8137   -2.4750    0.0000 O   0  0  0  0  0  0  0  0  0  0  0  0
   -0.6867   -2.7770    0.0000 O   0  0  0  0  0  0  0  0  0  0  0  0
   -1.5118   -1.3480    0.0000 O   0  0  0  0  0  0  0  0  0  0  0  0
   -1.8137    2.4750    0.0000 O   0  0  0  0  0  0  0  0  0  0  0  0
   -0.6867    2.7770    0.0000 O   0  0  0  0  0  0  0  0  0  0  0  0
   -1.5118    1.3480    0.0000 O   0  0  0  0  0  0  0  0  0  0  0  0
    0.3297   -0.4125    0.0000 C   0  0  0  0  0  0  0  0  0  0  0  0
    0.3297    0.4125    0.0000 C   0  0  0  0  0  0  0  0  0  0  0  0
   -0.3848   -0.8250    0.0000 C   0  0  0  0  0  0  0  0  0  0  0  0
   -1.0992   -0.4125    0.0000 C   0  0  0  0  0  0  0  0  0  0  0  0
   -0.3848    0.8250    0.0000 C   0  0  0  0  0  0  0  0  0  0  0  0
   -1.0992    0.4125    0.0000 C   0  0  0  0  0  0  0  0  0  0  0  0
    1.0672   -0.8536    0.0000 C   0  0  0  0  0  0  0  0  0  0  0  0
    1.0672    0.8536    0.0000 C   0  0  0  0  0  0  0  0  0  0  0  0
   -1.8137   -0.8250    0.0000 C   0  0  0  0  0  0  0  0  0  0  0  0
    1.8147   -0.4296    0.0000 C   0  0  0  0  0  0  0  0  0  0  0  0
    1.8147    0.4296    0.0000 C   0  0  0  0  0  0  0  0  0  0  0  0
    0.0000    0.0000    0.0000 H   0  0  0  0  0  0  0  0  0  0  0  0
    0.0000    0.0000    0.0000 H   0  0  0  0  0  0  0  0  0  0  0  0
    0.0000    0.0000    0.0000 H   0  0  0  0  0  0  0  0  0  0  0  0
    0.0000    0.0000    0.0000 H   0  0  0  0  0  0  0  0  0  0  0  0
    0.0000    0.0000    0.0000 H   0  0  0  0  0  0  0  0  0  0  0  0
    0.0000    0.0000    0.0000 H   0  0  0  0  0  0  0  0  0  0  0  0
    0.0000    0.0000    0.0000 H   0  0  0  0  0  0  0  0  0  0  0  0
    0.0000    0.0000    0.0000 H   0  0  0  0  0  0  0  0  0  0  0  0
  1  7  1  0
  1  9  1  0
  1 10  1  0
  1 11  2  0
  2  8  1  0
  2 12  1  0
  2 13  1  0
  2 14  2  0
  7 17  1  0
  8 19  1  0
 15 16  1  0
 15 17  2  0
 15 21  1  0
 16 19  2  0
 16 22  1  0
 17 18  1  0
 18 20  2  0
 18 23  1  0
 19 20  1  0
 21 24  2  0
 22 25  2  0
 24 25  1  0
 20 26  1  0
 21 27  1  0
 22 28  1  0
 23 29  1  0
 23 30  1  0
 23 31  1  0
 24 32  1  0
 25 33  1  0
M  CHG  8   3   1   4   1   5   1   6   1   9  -1  10  -1  12  -1  13  -1
M  END
>  <ALOGPS_LOGP>  (1) 
2.37

>  <ALOGPS_LOGS>  (1) 
-1.72

>  <ALOGPS_SOLUBILITY>  (1) 
8.03e+00 g/l

>  <DATABASE_ID>  (1) 
DB09332

>  <DATABASE_NAME>  (1) 
drugbank

>  <DRUGBANK_ID>  (1) 
DB09332

>  <DRUG_GROUPS>  (1) 
approved

>  <EXACT_MASS>  (1) 
421.92851833

>  <FORMULA>  (1) 
C11H8Na4O8P2

>  <GENERIC_NAME>  (1) 
Kappadione

>  <INCHI_IDENTIFIER>  (1) 
InChI=1S/C11H12O8P2.4Na/c1-7-6-10(18-20(12,13)14)8-4-2-3-5-9(8)11(7)19-21(15,16)17;;;;/h2-6H,1H3,(H2,12,13,14)(H2,15,16,17);;;;/q;4*+1/p-4

>  <INCHI_KEY>  (1) 
GZBACHSOZNEZOG-UHFFFAOYSA-J

>  <JCHEM_ACCEPTOR_COUNT>  (1) 
6

>  <JCHEM_ATOM_COUNT>  (1) 
33

>  <JCHEM_AVERAGE_POLARIZABILITY>  (1) 
26.134242262468142

>  <JCHEM_BIOAVAILABILITY>  (1) 
1

>  <JCHEM_DONOR_COUNT>  (1) 
0

>  <JCHEM_FORMAL_CHARGE>  (1) 
0

>  <JCHEM_GHOSE_FILTER>  (1) 
1

>  <JCHEM_IUPAC>  (1) 
tetrasodium 3-methyl-4-(phosphonatooxy)naphthalen-1-yl phosphate

>  <JCHEM_LOGP>  (1) 
1.5612830273333334

>  <JCHEM_MDDR_LIKE_RULE>  (1) 
0

>  <JCHEM_NUMBER_OF_RINGS>  (1) 
2

>  <JCHEM_PHYSIOLOGICAL_CHARGE>  (1) 
-4

>  <JCHEM_PKA>  (1) 
2.075618569922639

>  <JCHEM_PKA_STRONGEST_ACIDIC>  (1) 
1.4713832235792101

>  <JCHEM_POLAR_SURFACE_AREA>  (1) 
144.84

>  <JCHEM_REFRACTIVITY>  (1) 
68.77020000000003

>  <JCHEM_ROTATABLE_BOND_COUNT>  (1) 
4

>  <JCHEM_RULE_OF_FIVE>  (1) 
1

>  <JCHEM_TRADITIONAL_IUPAC>  (1) 
tetrasodium 3-methyl-4-(phosphonatooxy)naphthalen-1-yl phosphate

>  <JCHEM_VEBER_RULE>  (1) 
0

>  <MOLECULAR_WEIGHT>  (1) 
422.084

>  <SMILES>  (1) 
[Na+].[Na+].[Na+].[Na+].CC1=C(OP([O-])([O-])=O)C2=CC=CC=C2C(OP([O-])([O-])=O)=C1

>  <SYNONYMS>  (1) 
Menadiol sodium diphosphate

$$$$
