 
     RDKit          2D

 56 59  0  0  1  0  0  0  0  0999 V2000
   35.1321  -16.1276    0.0000 C   0  0  0  0  0  0  0  0  0  0  0  0
   34.4223  -16.5493    0.0000 O   0  0  0  0  0  0  0  0  0  0  0  0
   35.8503  -16.5284    0.0000 C   0  0  0  0  0  0  0  0  0  0  0  0
   31.5396  -19.1487    0.0000 C   0  0  0  0  0  0  0  0  0  0  0  0
   31.5396  -19.9755    0.0000 C   0  0  0  0  0  0  0  0  0  0  0  0
   32.2572  -20.3889    0.0000 C   0  0  0  0  0  0  0  0  0  0  0  0
   32.2572  -18.7354    0.0000 C   0  0  0  0  0  0  0  0  0  0  0  0
   32.9708  -19.1487    0.0000 C   0  0  0  0  0  0  0  0  0  0  0  0
   32.9672  -19.9755    0.0000 C   0  0  0  0  0  0  0  0  0  0  0  0
   33.6814  -20.3920    0.0000 C   0  0  0  0  0  0  0  0  0  0  0  0
   34.3992  -19.9817    0.0000 C   0  0  0  0  0  0  0  0  0  0  0  0
   33.6885  -18.7385    0.0000 C   0  0  0  0  0  0  0  0  0  0  0  0
   34.3992  -19.1567    0.0000 C   0  0  0  0  0  0  0  0  0  0  0  0
   34.4127  -17.5076    0.0000 C   0  0  0  0  0  0  0  0  0  0  0  0
   33.6952  -17.9140    0.0000 C   0  0  0  0  0  0  0  0  0  0  0  0
   35.1234  -17.9256    0.0000 C   0  0  0  0  0  0  0  0  0  0  0  0
   35.1136  -18.7477    0.0000 C   0  0  0  0  0  0  0  0  0  0  0  0
   36.5373  -18.7226    0.0000 C   0  0  0  0  0  0  0  0  0  0  0  0
   36.5473  -17.9429    0.0000 C   0  0  0  0  0  0  0  0  0  0  0  0
   35.8403  -17.5232    0.0000 C   0  0  0  0  0  0  0  0  0  0  0  0
   35.1179  -17.0986    0.0000 C   0  0  0  0  0  0  0  0  0  0  0  0
   32.9827  -17.4946    0.0000 O   0  0  0  0  0  0  0  0  0  0  0  0
   32.9634  -18.3219    0.0000 C   0  0  0  0  0  0  0  0  0  0  0  0
   37.2682  -17.5382    0.0000 C   0  0  0  0  0  0  0  0  0  0  0  0
   33.7240  -19.5622    0.0000 F   0  0  0  0  0  0  0  0  0  0  0  0
   33.6732  -21.2156    0.0000 F   0  0  0  0  0  0  0  0  0  0  0  0
   30.8238  -20.3893    0.0000 O   0  0  0  0  0  0  0  0  0  0  0  0
   36.5667  -16.1247    0.0000 O   0  0  0  0  0  0  0  0  0  0  0  0
    0.0000    0.0000    0.0000 H   0  0  0  0  0  0  0  0  0  0  0  0
    0.0000    0.0000    0.0000 H   0  0  0  0  0  0  0  0  0  0  0  0
    0.0000    0.0000    0.0000 H   0  0  0  0  0  0  0  0  0  0  0  0
    0.0000    0.0000    0.0000 H   0  0  0  0  0  0  0  0  0  0  0  0
    0.0000    0.0000    0.0000 H   0  0  0  0  0  0  0  0  0  0  0  0
    0.0000    0.0000    0.0000 H   0  0  0  0  0  0  0  0  0  0  0  0
    0.0000    0.0000    0.0000 H   0  0  0  0  0  0  0  0  0  0  0  0
    0.0000    0.0000    0.0000 H   0  0  0  0  0  0  0  0  0  0  0  0
    0.0000    0.0000    0.0000 H   0  0  0  0  0  0  0  0  0  0  0  0
    0.0000    0.0000    0.0000 H   0  0  0  0  0  0  0  0  0  0  0  0
    0.0000    0.0000    0.0000 H   0  0  0  0  0  0  0  0  0  0  0  0
    0.0000    0.0000    0.0000 H   0  0  0  0  0  0  0  0  0  0  0  0
    0.0000    0.0000    0.0000 H   0  0  0  0  0  0  0  0  0  0  0  0
    0.0000    0.0000    0.0000 H   0  0  0  0  0  0  0  0  0  0  0  0
    0.0000    0.0000    0.0000 H   0  0  0  0  0  0  0  0  0  0  0  0
    0.0000    0.0000    0.0000 H   0  0  0  0  0  0  0  0  0  0  0  0
    0.0000    0.0000    0.0000 H   0  0  0  0  0  0  0  0  0  0  0  0
    0.0000    0.0000    0.0000 H   0  0  0  0  0  0  0  0  0  0  0  0
    0.0000    0.0000    0.0000 H   0  0  0  0  0  0  0  0  0  0  0  0
    0.0000    0.0000    0.0000 H   0  0  0  0  0  0  0  0  0  0  0  0
    0.0000    0.0000    0.0000 H   0  0  0  0  0  0  0  0  0  0  0  0
    0.0000    0.0000    0.0000 H   0  0  0  0  0  0  0  0  0  0  0  0
    0.0000    0.0000    0.0000 H   0  0  0  0  0  0  0  0  0  0  0  0
    0.0000    0.0000    0.0000 H   0  0  0  0  0  0  0  0  0  0  0  0
    0.0000    0.0000    0.0000 H   0  0  0  0  0  0  0  0  0  0  0  0
    0.0000    0.0000    0.0000 H   0  0  0  0  0  0  0  0  0  0  0  0
    0.0000    0.0000    0.0000 H   0  0  0  0  0  0  0  0  0  0  0  0
    0.0000    0.0000    0.0000 H   0  0  0  0  0  0  0  0  0  0  0  0
  1  2  1  0
  3  1  1  0
 12 13  1  0
 13 17  1  0
 16 14  1  0
 14 15  1  0
 15 12  1  0
  4  5  1  0
  5  6  1  0
  6  9  2  0
  8  7  1  0
 16 17  1  0
 18 19  1  0
 19 20  1  0
 20 16  1  0
 17 18  1  0
 20  3  1  1
  7  4  2  0
 16 21  1  1
 15 22  1  1
  8 23  1  1
 19 24  1  1
  8  9  1  0
  9 10  1  0
 12 25  1  6
 10 11  1  0
 10 26  1  1
 11 13  1  0
  5 27  2  0
 12  8  1  0
  3 28  2  0
  1 29  1  0
  1 30  1  0
  2 31  1  0
  4 32  1  0
  6 33  1  0
  7 34  1  0
 10 35  1  0
 11 36  1  0
 11 37  1  0
 13 38  1  1
 14 39  1  0
 14 40  1  0
 15 41  1  0
 17 42  1  6
 18 43  1  0
 18 44  1  0
 19 45  1  0
 20 46  1  0
 21 47  1  0
 21 48  1  0
 21 49  1  0
 22 50  1  0
 23 51  1  0
 23 52  1  0
 23 53  1  0
 24 54  1  0
 24 55  1  0
 24 56  1  0
M  END
>  <ALOGPS_LOGP>  (1) 
2.22

>  <ALOGPS_LOGS>  (1) 
-3.95

>  <ALOGPS_SOLUBILITY>  (1) 
4.46e-02 g/l

>  <DATABASE_ID>  (1) 
DB09095

>  <DATABASE_NAME>  (1) 
drugbank

>  <DRUGBANK_ID>  (1) 
DB09095

>  <DRUG_GROUPS>  (1) 
approved; investigational; withdrawn

>  <EXACT_MASS>  (1) 
394.195565708

>  <FORMULA>  (1) 
C22H28F2O4

>  <GENERIC_NAME>  (1) 
Difluocortolone

>  <INCHI_IDENTIFIER>  (1) 
InChI=1S/C22H28F2O4/c1-11-6-13-14-8-16(23)15-7-12(26)4-5-21(15,3)22(14,24)18(28)9-20(13,2)19(11)17(27)10-25/h4-5,7,11,13-14,16,18-19,25,28H,6,8-10H2,1-3H3/t11-,13+,14+,16+,18+,19-,20+,21+,22+/m1/s1

>  <INCHI_KEY>  (1) 
OGPWIDANBSLJPC-RFPWEZLHSA-N

>  <JCHEM_ACCEPTOR_COUNT>  (1) 
4

>  <JCHEM_ATOM_COUNT>  (1) 
56

>  <JCHEM_AVERAGE_POLARIZABILITY>  (1) 
40.22496884076569

>  <JCHEM_BIOAVAILABILITY>  (1) 
1

>  <JCHEM_DONOR_COUNT>  (1) 
2

>  <JCHEM_FORMAL_CHARGE>  (1) 
0

>  <JCHEM_GHOSE_FILTER>  (1) 
1

>  <JCHEM_IUPAC>  (1) 
(1R,2S,8S,10S,11S,13R,14S,15S,17S)-1,8-difluoro-17-hydroxy-14-(2-hydroxyacetyl)-2,13,15-trimethyltetracyclo[8.7.0.0²,⁷.0¹¹,¹⁵]heptadeca-3,6-dien-5-one

>  <JCHEM_LOGP>  (1) 
2.011321779666665

>  <JCHEM_MDDR_LIKE_RULE>  (1) 
0

>  <JCHEM_NUMBER_OF_RINGS>  (1) 
4

>  <JCHEM_PHYSIOLOGICAL_CHARGE>  (1) 
0

>  <JCHEM_PKA>  (1) 
13.946688013394635

>  <JCHEM_PKA_STRONGEST_ACIDIC>  (1) 
13.385937055768306

>  <JCHEM_PKA_STRONGEST_BASIC>  (1) 
-3.2955026443155404

>  <JCHEM_POLAR_SURFACE_AREA>  (1) 
74.6

>  <JCHEM_REFRACTIVITY>  (1) 
100.99329999999998

>  <JCHEM_ROTATABLE_BOND_COUNT>  (1) 
2

>  <JCHEM_RULE_OF_FIVE>  (1) 
1

>  <JCHEM_TRADITIONAL_IUPAC>  (1) 
diflucortolona

>  <JCHEM_VEBER_RULE>  (1) 
0

>  <MOLECULAR_WEIGHT>  (1) 
394.459

>  <PRODUCTS>  (1) 
Nerisalic Oily Cream; Nerisone Cream; Nerisone Oily Cream; Nerisone Ointment

>  <SALTS>  (1) 
Difluocortolone pivalate; Difluocortolone valerate

>  <SMILES>  (1) 
[H][C@@]12C[C@@H](C)[C@H](C(=O)CO)[C@@]1(C)C[C@H](O)[C@@]1(F)[C@@]2([H])C[C@H](F)C2=CC(=O)C=C[C@]12C

>  <SYNONYMS>  (1) 
Diflucortolone

$$$$
