
     RDKit          2D

115108  0  0  0  0  0  0  0  0999 V2000
   -6.7841    1.5748    0.0000 C   0  0  0  0  0  0  0  0  0  0  0  0
   -5.3551    2.3998    0.0000 C   0  0  0  0  0  0  0  0  0  0  0  0
   -4.0071    1.2729    0.0000 C   0  0  0  0  0  0  0  0  0  0  0  0
   -7.3071    2.7018    0.0000 C   0  0  0  0  0  0  0  0  0  0  0  0
   -5.6571    1.2729    0.0000 C   0  0  0  0  0  0  0  0  0  0  0  0
   -6.0696    1.9873    0.0000 C   0  0  0  0  0  0  0  0  0  0  0  0
   -4.8321    1.2729    0.0000 N   0  0  0  0  0  0  0  0  0  0  0  0
   -6.4821    2.7018    0.0000 O   0  0  0  0  0  0  0  0  0  0  0  0
    0.4125    2.4750    0.0000 C   0  0  0  0  0  0  0  0  0  0  0  0
    0.4125    0.8250    0.0000 C   0  0  0  0  0  0  0  0  0  0  0  0
    2.0625    3.0789    0.0000 C   0  0  0  0  0  0  0  0  0  0  0  0
   -0.8250    0.9355    0.0000 C   0  0  0  0  0  0  0  0  0  0  0  0
    1.2375    1.6500    0.0000 C   0  0  0  0  0  0  0  0  0  0  0  0
    0.4125    1.6500    0.0000 C   0  0  0  0  0  0  0  0  0  0  0  0
    1.6500    2.3644    0.0000 N   0  0  0  0  0  0  0  0  0  0  0  0
   -0.4125    1.6500    0.0000 O   0  0  0  0  0  0  0  0  0  0  0  0
    5.6571    2.4750    0.0000 C   0  0  0  0  0  0  0  0  0  0  0  0
    5.6571    0.8250    0.0000 C   0  0  0  0  0  0  0  0  0  0  0  0
    7.3071    3.0789    0.0000 C   0  0  0  0  0  0  0  0  0  0  0  0
    4.4196    0.9355    0.0000 C   0  0  0  0  0  0  0  0  0  0  0  0
    6.4821    1.6500    0.0000 C   0  0  0  0  0  0  0  0  0  0  0  0
    5.6571    1.6500    0.0000 C   0  0  0  0  0  0  0  0  0  0  0  0
    6.8946    2.3644    0.0000 N   0  0  0  0  0  0  0  0  0  0  0  0
    4.8321    1.6500    0.0000 O   0  0  0  0  0  0  0  0  0  0  0  0
   -5.7258   -1.4289    0.0000 C   0  0  0  0  0  0  0  0  0  0  0  0
   -5.7258   -3.0789    0.0000 C   0  0  0  0  0  0  0  0  0  0  0  0
   -4.0758   -0.8250    0.0000 C   0  0  0  0  0  0  0  0  0  0  0  0
   -6.9633   -2.9684    0.0000 C   0  0  0  0  0  0  0  0  0  0  0  0
   -4.9008   -2.2539    0.0000 C   0  0  0  0  0  0  0  0  0  0  0  0
   -5.7258   -2.2539    0.0000 C   0  0  0  0  0  0  0  0  0  0  0  0
   -4.4883   -1.5394    0.0000 N   0  0  0  0  0  0  0  0  0  0  0  0
   -6.5508   -2.2539    0.0000 O   0  0  0  0  0  0  0  0  0  0  0  0
   -0.4812   -1.4289    0.0000 C   0  0  0  0  0  0  0  0  0  0  0  0
   -0.4812   -3.0789    0.0000 C   0  0  0  0  0  0  0  0  0  0  0  0
    1.1687   -0.8250    0.0000 C   0  0  0  0  0  0  0  0  0  0  0  0
   -1.7187   -2.9684    0.0000 C   0  0  0  0  0  0  0  0  0  0  0  0
    0.3437   -2.2539    0.0000 C   0  0  0  0  0  0  0  0  0  0  0  0
   -0.4812   -2.2539    0.0000 C   0  0  0  0  0  0  0  0  0  0  0  0
    0.7562   -1.5394    0.0000 N   0  0  0  0  0  0  0  0  0  0  0  0
   -1.3062   -2.2539    0.0000 O   0  0  0  0  0  0  0  0  0  0  0  0
    4.7633   -1.4289    0.0000 C   0  0  0  0  0  0  0  0  0  0  0  0
    4.7633   -3.0789    0.0000 C   0  0  0  0  0  0  0  0  0  0  0  0
    6.4133   -0.8250    0.0000 C   0  0  0  0  0  0  0  0  0  0  0  0
    3.5258   -2.9684    0.0000 C   0  0  0  0  0  0  0  0  0  0  0  0
    5.5883   -2.2539    0.0000 C   0  0  0  0  0  0  0  0  0  0  0  0
    4.7633   -2.2539    0.0000 C   0  0  0  0  0  0  0  0  0  0  0  0
    6.0008   -1.5394    0.0000 N   0  0  0  0  0  0  0  0  0  0  0  0
    3.9383   -2.2539    0.0000 O   0  0  0  0  0  0  0  0  0  0  0  0
   -3.1821    1.2729    0.0000 Tc  0  0  0  0  0  0  0  0  0  0  0  0
    0.0000    0.0000    0.0000 H   0  0  0  0  0  0  0  0  0  0  0  0
    0.0000    0.0000    0.0000 H   0  0  0  0  0  0  0  0  0  0  0  0
    0.0000    0.0000    0.0000 H   0  0  0  0  0  0  0  0  0  0  0  0
    0.0000    0.0000    0.0000 H   0  0  0  0  0  0  0  0  0  0  0  0
    0.0000    0.0000    0.0000 H   0  0  0  0  0  0  0  0  0  0  0  0
    0.0000    0.0000    0.0000 H   0  0  0  0  0  0  0  0  0  0  0  0
    0.0000    0.0000    0.0000 H   0  0  0  0  0  0  0  0  0  0  0  0
    0.0000    0.0000    0.0000 H   0  0  0  0  0  0  0  0  0  0  0  0
    0.0000    0.0000    0.0000 H   0  0  0  0  0  0  0  0  0  0  0  0
    0.0000    0.0000    0.0000 H   0  0  0  0  0  0  0  0  0  0  0  0
    0.0000    0.0000    0.0000 H   0  0  0  0  0  0  0  0  0  0  0  0
    0.0000    0.0000    0.0000 H   0  0  0  0  0  0  0  0  0  0  0  0
    0.0000    0.0000    0.0000 H   0  0  0  0  0  0  0  0  0  0  0  0
    0.0000    0.0000    0.0000 H   0  0  0  0  0  0  0  0  0  0  0  0
    0.0000    0.0000    0.0000 H   0  0  0  0  0  0  0  0  0  0  0  0
    0.0000    0.0000    0.0000 H   0  0  0  0  0  0  0  0  0  0  0  0
    0.0000    0.0000    0.0000 H   0  0  0  0  0  0  0  0  0  0  0  0
    0.0000    0.0000    0.0000 H   0  0  0  0  0  0  0  0  0  0  0  0
    0.0000    0.0000    0.0000 H   0  0  0  0  0  0  0  0  0  0  0  0
    0.0000    0.0000    0.0000 H   0  0  0  0  0  0  0  0  0  0  0  0
    0.0000    0.0000    0.0000 H   0  0  0  0  0  0  0  0  0  0  0  0
    0.0000    0.0000    0.0000 H   0  0  0  0  0  0  0  0  0  0  0  0
    0.0000    0.0000    0.0000 H   0  0  0  0  0  0  0  0  0  0  0  0
    0.0000    0.0000    0.0000 H   0  0  0  0  0  0  0  0  0  0  0  0
    0.0000    0.0000    0.0000 H   0  0  0  0  0  0  0  0  0  0  0  0
    0.0000    0.0000    0.0000 H   0  0  0  0  0  0  0  0  0  0  0  0
    0.0000    0.0000    0.0000 H   0  0  0  0  0  0  0  0  0  0  0  0
    0.0000    0.0000    0.0000 H   0  0  0  0  0  0  0  0  0  0  0  0
    0.0000    0.0000    0.0000 H   0  0  0  0  0  0  0  0  0  0  0  0
    0.0000    0.0000    0.0000 H   0  0  0  0  0  0  0  0  0  0  0  0
    0.0000    0.0000    0.0000 H   0  0  0  0  0  0  0  0  0  0  0  0
    0.0000    0.0000    0.0000 H   0  0  0  0  0  0  0  0  0  0  0  0
    0.0000    0.0000    0.0000 H   0  0  0  0  0  0  0  0  0  0  0  0
    0.0000    0.0000    0.0000 H   0  0  0  0  0  0  0  0  0  0  0  0
    0.0000    0.0000    0.0000 H   0  0  0  0  0  0  0  0  0  0  0  0
    0.0000    0.0000    0.0000 H   0  0  0  0  0  0  0  0  0  0  0  0
    0.0000    0.0000    0.0000 H   0  0  0  0  0  0  0  0  0  0  0  0
    0.0000    0.0000    0.0000 H   0  0  0  0  0  0  0  0  0  0  0  0
    0.0000    0.0000    0.0000 H   0  0  0  0  0  0  0  0  0  0  0  0
    0.0000    0.0000    0.0000 H   0  0  0  0  0  0  0  0  0  0  0  0
    0.0000    0.0000    0.0000 H   0  0  0  0  0  0  0  0  0  0  0  0
    0.0000    0.0000    0.0000 H   0  0  0  0  0  0  0  0  0  0  0  0
    0.0000    0.0000    0.0000 H   0  0  0  0  0  0  0  0  0  0  0  0
    0.0000    0.0000    0.0000 H   0  0  0  0  0  0  0  0  0  0  0  0
    0.0000    0.0000    0.0000 H   0  0  0  0  0  0  0  0  0  0  0  0
    0.0000    0.0000    0.0000 H   0  0  0  0  0  0  0  0  0  0  0  0
    0.0000    0.0000    0.0000 H   0  0  0  0  0  0  0  0  0  0  0  0
    0.0000    0.0000    0.0000 H   0  0  0  0  0  0  0  0  0  0  0  0
    0.0000    0.0000    0.0000 H   0  0  0  0  0  0  0  0  0  0  0  0
    0.0000    0.0000    0.0000 H   0  0  0  0  0  0  0  0  0  0  0  0
    0.0000    0.0000    0.0000 H   0  0  0  0  0  0  0  0  0  0  0  0
    0.0000    0.0000    0.0000 H   0  0  0  0  0  0  0  0  0  0  0  0
    0.0000    0.0000    0.0000 H   0  0  0  0  0  0  0  0  0  0  0  0
    0.0000    0.0000    0.0000 H   0  0  0  0  0  0  0  0  0  0  0  0
    0.0000    0.0000    0.0000 H   0  0  0  0  0  0  0  0  0  0  0  0
    0.0000    0.0000    0.0000 H   0  0  0  0  0  0  0  0  0  0  0  0
    0.0000    0.0000    0.0000 H   0  0  0  0  0  0  0  0  0  0  0  0
    0.0000    0.0000    0.0000 H   0  0  0  0  0  0  0  0  0  0  0  0
    0.0000    0.0000    0.0000 H   0  0  0  0  0  0  0  0  0  0  0  0
    0.0000    0.0000    0.0000 H   0  0  0  0  0  0  0  0  0  0  0  0
    0.0000    0.0000    0.0000 H   0  0  0  0  0  0  0  0  0  0  0  0
    0.0000    0.0000    0.0000 H   0  0  0  0  0  0  0  0  0  0  0  0
    0.0000    0.0000    0.0000 H   0  0  0  0  0  0  0  0  0  0  0  0
    0.0000    0.0000    0.0000 H   0  0  0  0  0  0  0  0  0  0  0  0
    0.0000    0.0000    0.0000 H   0  0  0  0  0  0  0  0  0  0  0  0
    0.0000    0.0000    0.0000 H   0  0  0  0  0  0  0  0  0  0  0  0
  6  1  1  0
  6  2  1  0
  6  5  1  0
  7  3  3  0
  7  5  1  0
  8  4  1  0
  8  6  1  0
 14  9  1  0
 14 10  1  0
 14 13  1  0
 15 11  3  0
 15 13  1  0
 16 12  1  0
 16 14  1  0
 22 17  1  0
 22 18  1  0
 22 21  1  0
 23 19  3  0
 23 21  1  0
 24 20  1  0
 24 22  1  0
 30 25  1  0
 30 26  1  0
 30 29  1  0
 31 27  3  0
 31 29  1  0
 32 28  1  0
 32 30  1  0
 38 33  1  0
 38 34  1  0
 38 37  1  0
 39 35  3  0
 39 37  1  0
 40 36  1  0
 40 38  1  0
 46 41  1  0
 46 42  1  0
 46 45  1  0
 47 43  3  0
 47 45  1  0
 48 44  1  0
 48 46  1  0
  1 50  1  0
  1 51  1  0
  1 52  1  0
  2 53  1  0
  2 54  1  0
  2 55  1  0
  4 56  1  0
  4 57  1  0
  4 58  1  0
  5 59  1  0
  5 60  1  0
  9 61  1  0
  9 62  1  0
  9 63  1  0
 10 64  1  0
 10 65  1  0
 10 66  1  0
 12 67  1  0
 12 68  1  0
 12 69  1  0
 13 70  1  0
 13 71  1  0
 17 72  1  0
 17 73  1  0
 17 74  1  0
 18 75  1  0
 18 76  1  0
 18 77  1  0
 20 78  1  0
 20 79  1  0
 20 80  1  0
 21 81  1  0
 21 82  1  0
 25 83  1  0
 25 84  1  0
 25 85  1  0
 26 86  1  0
 26 87  1  0
 26 88  1  0
 28 89  1  0
 28 90  1  0
 28 91  1  0
 29 92  1  0
 29 93  1  0
 33 94  1  0
 33 95  1  0
 33 96  1  0
 34 97  1  0
 34 98  1  0
 34 99  1  0
 36100  1  0
 36101  1  0
 36102  1  0
 37103  1  0
 37104  1  0
 41105  1  0
 41106  1  0
 41107  1  0
 42108  1  0
 42109  1  0
 42110  1  0
 44111  1  0
 44112  1  0
 44113  1  0
 45114  1  0
 45115  1  0
M  CHG  8   3  -1   7   1  11  -1  15   1  19  -1  23   1  27  -1  31   1
M  CHG  5  35  -1  39   1  43  -1  47   1  49   1
M  END
>  <ALOGPS_LOGP>  (1) 
5.44

>  <ALOGPS_LOGS>  (1) 
-5.24

>  <ALOGPS_SOLUBILITY>  (1) 
4.65e-03 g/l

>  <DATABASE_ID>  (1) 
DB09161

>  <DATABASE_NAME>  (1) 
drugbank

>  <DRUGBANK_ID>  (1) 
DB09161

>  <DRUG_GROUPS>  (1) 
approved

>  <EXACT_MASS>  (1) 
775.5

>  <FORMULA>  (1) 
C36H66N6O6Tc

>  <GENERIC_NAME>  (1) 
Technetium Tc-99m sestamibi

>  <INCHI_IDENTIFIER>  (1) 
InChI=1S/6C6H11NO.Tc/c6*1-6(2,8-4)5-7-3;/h6*5H2,1-2,4H3;/q;;;;;;+1

>  <INCHI_KEY>  (1) 
ZBTQTVSNLRPJHI-UHFFFAOYSA-N

>  <JCHEM_ACCEPTOR_COUNT>  (1) 
1

>  <JCHEM_ATOM_COUNT>  (1) 
115

>  <JCHEM_AVERAGE_POLARIZABILITY>  (1) 
12.699504207203661

>  <JCHEM_BIOAVAILABILITY>  (1) 
0

>  <JCHEM_DONOR_COUNT>  (1) 
0

>  <JCHEM_FORMAL_CHARGE>  (1) 
1

>  <JCHEM_GHOSE_FILTER>  (1) 
0

>  <JCHEM_IUPAC>  (1) 
technetium(1+) ion hexakis(1-isocyano-2-methoxy-2-methylpropane)

>  <JCHEM_LOGP>  (1) 
-1.308232818542612

>  <JCHEM_MDDR_LIKE_RULE>  (1) 
0

>  <JCHEM_NUMBER_OF_RINGS>  (1) 
0

>  <JCHEM_PHYSIOLOGICAL_CHARGE>  (1) 
1

>  <JCHEM_PKA_STRONGEST_ACIDIC>  (1) 
16.143754250664134

>  <JCHEM_PKA_STRONGEST_BASIC>  (1) 
-4.182988978399634

>  <JCHEM_POLAR_SURFACE_AREA>  (1) 
13.59

>  <JCHEM_REFRACTIVITY>  (1) 
41.612100000000005

>  <JCHEM_ROTATABLE_BOND_COUNT>  (1) 
12

>  <JCHEM_RULE_OF_FIVE>  (1) 
0

>  <JCHEM_TRADITIONAL_IUPAC>  (1) 
technetium(1+) ion hexakis(1-isocyano-2-methoxy-2-methylpropane)

>  <JCHEM_VEBER_RULE>  (1) 
0

>  <MOLECULAR_WEIGHT>  (1) 
775.96

>  <PRODUCTS>  (1) 
Kit for The Preparation Of Technetium Tc 99m Sestamibi; Kit for the Preparation of Technetium Tc99m Sestamibi; Technetium Tc 99m Sestamibi

>  <SMILES>  (1) 
[Tc+].COC(C)(C)C[N+]#[C-].COC(C)(C)C[N+]#[C-].COC(C)(C)C[N+]#[C-].COC(C)(C)C[N+]#[C-].COC(C)(C)C[N+]#[C-].COC(C)(C)C[N+]#[C-]

>  <SYNONYMS>  (1) 
99m Tc-sestamibi; 99m-Tc sestamibi; 99mTc sestamibi; 99mTc-sestamibi; Sestamibi; Technetium (99m Tc) sestamibi; Technetium (99mTc) sestamibi; Technetium Tc 99m sestamibi

$$$$
