
     RDKit          2D

 54 53  0  0  0  0  0  0  0  0999 V2000
   -2.4752   -0.8044    0.0000 O   0  0  0  0  0  0  0  0  0  0  0  0
   -2.0626   -1.5469    0.0000 C   0  0  0  0  0  0  0  0  0  0  0  0
   -1.2375   -1.5469    0.0000 C   0  0  0  0  0  0  0  0  0  0  0  0
   -0.8250   -0.8044    0.0000 N   0  0  0  0  0  0  0  0  0  0  0  0
    1.2375   -1.5469    0.0000 C   0  0  0  0  0  0  0  0  0  0  0  0
    2.0626   -1.5469    0.0000 C   0  0  0  0  0  0  0  0  0  0  0  0
    2.4752   -0.8456    0.0000 O   0  0  0  0  0  0  0  0  0  0  0  0
    0.8250   -0.8456    0.0000 N   0  0  0  0  0  0  0  0  0  0  0  0
   -0.8250    0.8456    0.0000 N   0  0  0  0  0  0  0  0  0  0  0  0
   -1.2375    1.5469    0.0000 C   0  0  0  0  0  0  0  0  0  0  0  0
   -2.0626    1.5469    0.0000 C   0  0  0  0  0  0  0  0  0  0  0  0
   -2.4752    0.8456    0.0000 O   0  0  0  0  0  0  0  0  0  0  0  0
    2.4752    0.8456    0.0000 O   0  0  0  0  0  0  0  0  0  0  0  0
    2.0626    1.5469    0.0000 C   0  0  0  0  0  0  0  0  0  0  0  0
    1.2375    1.5469    0.0000 C   0  0  0  0  0  0  0  0  0  0  0  0
    0.8250    0.8456    0.0000 N   0  0  0  0  0  0  0  0  0  0  0  0
    1.5263   -0.4332    0.0000 C   0  0  0  0  0  0  0  0  0  0  0  0
    1.5263    0.3918    0.0000 C   0  0  0  0  0  0  0  0  0  0  0  0
   -0.4125   -1.5469    0.0000 C   0  0  0  0  0  0  0  0  0  0  0  0
    0.4125   -1.5469    0.0000 C   0  0  0  0  0  0  0  0  0  0  0  0
   -1.5676    0.4332    0.0000 C   0  0  0  0  0  0  0  0  0  0  0  0
   -1.5676   -0.3918    0.0000 C   0  0  0  0  0  0  0  0  0  0  0  0
    0.4125    1.5469    0.0000 C   0  0  0  0  0  0  0  0  0  0  0  0
   -0.4125    1.5469    0.0000 C   0  0  0  0  0  0  0  0  0  0  0  0
    2.4752    2.2483    0.0000 O   0  0  0  0  0  0  0  0  0  0  0  0
    2.4752   -2.2483    0.0000 O   0  0  0  0  0  0  0  0  0  0  0  0
   -2.4752   -2.2483    0.0000 O   0  0  0  0  0  0  0  0  0  0  0  0
   -2.4752    2.2483    0.0000 O   0  0  0  0  0  0  0  0  0  0  0  0
   -0.1650   -0.1444    0.0000 Gd  0  0  0  0  0  0  0  0  0  0  0  0
    0.0000    0.0000    0.0000 H   0  0  0  0  0  0  0  0  0  0  0  0
    0.0000    0.0000    0.0000 H   0  0  0  0  0  0  0  0  0  0  0  0
    0.0000    0.0000    0.0000 H   0  0  0  0  0  0  0  0  0  0  0  0
    0.0000    0.0000    0.0000 H   0  0  0  0  0  0  0  0  0  0  0  0
    0.0000    0.0000    0.0000 H   0  0  0  0  0  0  0  0  0  0  0  0
    0.0000    0.0000    0.0000 H   0  0  0  0  0  0  0  0  0  0  0  0
    0.0000    0.0000    0.0000 H   0  0  0  0  0  0  0  0  0  0  0  0
    0.0000    0.0000    0.0000 H   0  0  0  0  0  0  0  0  0  0  0  0
    0.0000    0.0000    0.0000 H   0  0  0  0  0  0  0  0  0  0  0  0
    0.0000    0.0000    0.0000 H   0  0  0  0  0  0  0  0  0  0  0  0
    0.0000    0.0000    0.0000 H   0  0  0  0  0  0  0  0  0  0  0  0
    0.0000    0.0000    0.0000 H   0  0  0  0  0  0  0  0  0  0  0  0
    0.0000    0.0000    0.0000 H   0  0  0  0  0  0  0  0  0  0  0  0
    0.0000    0.0000    0.0000 H   0  0  0  0  0  0  0  0  0  0  0  0
    0.0000    0.0000    0.0000 H   0  0  0  0  0  0  0  0  0  0  0  0
    0.0000    0.0000    0.0000 H   0  0  0  0  0  0  0  0  0  0  0  0
    0.0000    0.0000    0.0000 H   0  0  0  0  0  0  0  0  0  0  0  0
    0.0000    0.0000    0.0000 H   0  0  0  0  0  0  0  0  0  0  0  0
    0.0000    0.0000    0.0000 H   0  0  0  0  0  0  0  0  0  0  0  0
    0.0000    0.0000    0.0000 H   0  0  0  0  0  0  0  0  0  0  0  0
    0.0000    0.0000    0.0000 H   0  0  0  0  0  0  0  0  0  0  0  0
    0.0000    0.0000    0.0000 H   0  0  0  0  0  0  0  0  0  0  0  0
    0.0000    0.0000    0.0000 H   0  0  0  0  0  0  0  0  0  0  0  0
    0.0000    0.0000    0.0000 H   0  0  0  0  0  0  0  0  0  0  0  0
    0.0000    0.0000    0.0000 H   0  0  0  0  0  0  0  0  0  0  0  0
 15 16  1  0
  3  4  1  0
  8 17  1  0
 17 18  1  0
 18 16  1  0
  1  2  1  0
  4 19  1  0
 19 20  1  0
 20  8  1  0
  9 10  1  0
 10 11  1  0
 21 22  1  0
 22  4  1  0
  9 21  1  0
 11 12  1  0
  2  3  1  0
 16 23  1  0
 23 24  1  0
 24  9  1  0
  5  6  1  0
 14 25  2  0
  6  7  1  0
  6 26  2  0
  8  5  1  0
  2 27  2  0
 13 14  1  0
 11 28  2  0
 14 15  1  0
  3 30  1  0
  3 31  1  0
  5 32  1  0
  5 33  1  0
  7 34  1  0
 10 35  1  0
 10 36  1  0
 15 37  1  0
 15 38  1  0
 17 39  1  0
 17 40  1  0
 18 41  1  0
 18 42  1  0
 19 43  1  0
 19 44  1  0
 20 45  1  0
 20 46  1  0
 21 47  1  0
 21 48  1  0
 22 49  1  0
 22 50  1  0
 23 51  1  0
 23 52  1  0
 24 53  1  0
 24 54  1  0
M  CHG  4   1  -1  12  -1  13  -1  29   3
M  END
>  <ALOGPS_LOGP>  (1) 
0.23

>  <ALOGPS_LOGS>  (1) 
-1.72

>  <ALOGPS_SOLUBILITY>  (1) 
1.28e+01 g/l

>  <DATABASE_ID>  (1) 
DB09132

>  <DATABASE_NAME>  (1) 
drugbank

>  <DRUGBANK_ID>  (1) 
DB09132

>  <DRUG_GROUPS>  (1) 
approved

>  <EXACT_MASS>  (1) 
559.09135

>  <FORMULA>  (1) 
C16H25GdN4O8

>  <GENERIC_NAME>  (1) 
Gadoteric acid

>  <INCHI_IDENTIFIER>  (1) 
InChI=1S/C16H28N4O8.Gd/c21-13(22)9-17-1-2-18(10-14(23)24)5-6-20(12-16(27)28)8-7-19(4-3-17)11-15(25)26;/h1-12H2,(H,21,22)(H,23,24)(H,25,26)(H,27,28);/q;+3/p-3

>  <INCHI_KEY>  (1) 
GFSTXYOTEVLASN-UHFFFAOYSA-K

>  <JCHEM_ACCEPTOR_COUNT>  (1) 
12

>  <JCHEM_ATOM_COUNT>  (1) 
54

>  <JCHEM_AVERAGE_POLARIZABILITY>  (1) 
38.1454683809509

>  <JCHEM_BIOAVAILABILITY>  (1) 
0

>  <JCHEM_DONOR_COUNT>  (1) 
1

>  <JCHEM_FORMAL_CHARGE>  (1) 
0

>  <JCHEM_GHOSE_FILTER>  (1) 
0

>  <JCHEM_IUPAC>  (1) 
gadolinium(3+) ion 2-[4,7-bis(carboxylatomethyl)-10-(carboxymethyl)-1,4,7,10-tetraazacyclododecan-1-yl]acetate

>  <JCHEM_LOGP>  (1) 
-7.670609857907673

>  <JCHEM_MDDR_LIKE_RULE>  (1) 
0

>  <JCHEM_NUMBER_OF_RINGS>  (1) 
1

>  <JCHEM_PHYSIOLOGICAL_CHARGE>  (1) 
-2

>  <JCHEM_PKA>  (1) 
1.7983430600837362

>  <JCHEM_PKA_STRONGEST_ACIDIC>  (1) 
0.4748427365566519

>  <JCHEM_PKA_STRONGEST_BASIC>  (1) 
10.08363200483207

>  <JCHEM_POLAR_SURFACE_AREA>  (1) 
170.64999999999998

>  <JCHEM_REFRACTIVITY>  (1) 
128.92609999999996

>  <JCHEM_ROTATABLE_BOND_COUNT>  (1) 
8

>  <JCHEM_RULE_OF_FIVE>  (1) 
0

>  <JCHEM_TRADITIONAL_IUPAC>  (1) 
gadolinium(3+) ion 2-[4,7-bis(carboxylatomethyl)-10-(carboxymethyl)-1,4,7,10-tetraazacyclododecan-1-yl]acetate

>  <JCHEM_VEBER_RULE>  (1) 
0

>  <MOLECULAR_WEIGHT>  (1) 
558.65

>  <PRODUCTS>  (1) 
Dotarem

>  <SALTS>  (1) 
Gadoterate meglumine

>  <SMILES>  (1) 
[Gd+3].OC(=O)CN1CCN(CC([O-])=O)CCN(CC([O-])=O)CCN(CC([O-])=O)CC1

>  <SYNONYMS>  (1) 
[2,2',2'',2'''-(1,4,7,10-tetraazacyclododecane-1,4,7,10-tetrayl-κ4N1,N4,N7,N10)tetraacetato(3−)]gadolinium; DOTA-Gd; Gadoterate; Gd-DOTA

$$$$
