
     RDKit          2D

 66 70  0  0  0  0  0  0  0  0999 V2000
   -1.7574   -1.4191    0.0000 O   0  0  0  0  0  0  0  0  0  0  0  0
    0.8290    1.3875    0.0000 O   0  0  0  0  0  0  0  0  0  0  0  0
   -0.3948   -0.4197    0.0000 N   0  0  0  0  0  0  0  0  0  0  0  0
   -0.6084   -1.2165    0.0000 C   0  0  0  0  0  0  0  0  0  0  0  0
    0.9028   -1.8426    0.0000 C   0  0  0  0  0  0  0  0  0  0  0  0
   -2.0373   -2.0416    0.0000 C   0  0  0  0  0  0  0  0  0  0  0  0
   -1.4150    0.2803    0.0000 C   0  0  0  0  0  0  0  0  0  0  0  0
    1.1164   -1.0457    0.0000 C   0  0  0  0  0  0  0  0  0  0  0  0
   -2.4498   -1.3271    0.0000 C   0  0  0  0  0  0  0  0  0  0  0  0
   -0.7006    0.6929    0.0000 C   0  0  0  0  0  0  0  0  0  0  0  0
   -1.0815   -1.8924    0.0000 C   0  0  0  0  0  0  0  0  0  0  0  0
   -0.1813    0.3771    0.0000 C   0  0  0  0  0  0  0  0  0  0  0  0
   -1.5548   -2.5682    0.0000 C   0  0  0  0  0  0  0  0  0  0  0  0
   -0.4057   -2.3655    0.0000 C   0  0  0  0  0  0  0  0  0  0  0  0
    0.6155    0.5907    0.0000 C   0  0  0  0  0  0  0  0  0  0  0  0
   -1.2061   -3.3158    0.0000 C   0  0  0  0  0  0  0  0  0  0  0  0
    0.3418   -2.0169    0.0000 C   0  0  0  0  0  0  0  0  0  0  0  0
   -2.3765   -2.4962    0.0000 C   0  0  0  0  0  0  0  0  0  0  0  0
   -0.4777   -3.1874    0.0000 C   0  0  0  0  0  0  0  0  0  0  0  0
   -1.6793   -3.9917    0.0000 C   0  0  0  0  0  0  0  0  0  0  0  0
    1.0176   -2.4901    0.0000 C   0  0  0  0  0  0  0  0  0  0  0  0
   -2.8498   -3.1720    0.0000 C   0  0  0  0  0  0  0  0  0  0  0  0
    0.1980   -3.6606    0.0000 C   0  0  0  0  0  0  0  0  0  0  0  0
    1.6259    1.6011    0.0000 C   0  0  0  0  0  0  0  0  0  0  0  0
   -2.5011   -3.9197    0.0000 C   0  0  0  0  0  0  0  0  0  0  0  0
    0.9457   -3.3119    0.0000 C   0  0  0  0  0  0  0  0  0  0  0  0
    1.8394    2.3978    0.0000 C   0  0  0  0  0  0  0  0  0  0  0  0
    1.2560    2.9813    0.0000 C   0  0  0  0  0  0  0  0  0  0  0  0
    2.6363    2.6115    0.0000 C   0  0  0  0  0  0  0  0  0  0  0  0
    1.4695    3.7782    0.0000 C   0  0  0  0  0  0  0  0  0  0  0  0
    2.8498    3.4083    0.0000 C   0  0  0  0  0  0  0  0  0  0  0  0
    2.2664    3.9917    0.0000 C   0  0  0  0  0  0  0  0  0  0  0  0
    0.0000    0.0000    0.0000 H   0  0  0  0  0  0  0  0  0  0  0  0
    0.0000    0.0000    0.0000 H   0  0  0  0  0  0  0  0  0  0  0  0
    0.0000    0.0000    0.0000 H   0  0  0  0  0  0  0  0  0  0  0  0
    0.0000    0.0000    0.0000 H   0  0  0  0  0  0  0  0  0  0  0  0
    0.0000    0.0000    0.0000 H   0  0  0  0  0  0  0  0  0  0  0  0
    0.0000    0.0000    0.0000 H   0  0  0  0  0  0  0  0  0  0  0  0
    0.0000    0.0000    0.0000 H   0  0  0  0  0  0  0  0  0  0  0  0
    0.0000    0.0000    0.0000 H   0  0  0  0  0  0  0  0  0  0  0  0
    0.0000    0.0000    0.0000 H   0  0  0  0  0  0  0  0  0  0  0  0
    0.0000    0.0000    0.0000 H   0  0  0  0  0  0  0  0  0  0  0  0
    0.0000    0.0000    0.0000 H   0  0  0  0  0  0  0  0  0  0  0  0
    0.0000    0.0000    0.0000 H   0  0  0  0  0  0  0  0  0  0  0  0
    0.0000    0.0000    0.0000 H   0  0  0  0  0  0  0  0  0  0  0  0
    0.0000    0.0000    0.0000 H   0  0  0  0  0  0  0  0  0  0  0  0
    0.0000    0.0000    0.0000 H   0  0  0  0  0  0  0  0  0  0  0  0
    0.0000    0.0000    0.0000 H   0  0  0  0  0  0  0  0  0  0  0  0
    0.0000    0.0000    0.0000 H   0  0  0  0  0  0  0  0  0  0  0  0
    0.0000    0.0000    0.0000 H   0  0  0  0  0  0  0  0  0  0  0  0
    0.0000    0.0000    0.0000 H   0  0  0  0  0  0  0  0  0  0  0  0
    0.0000    0.0000    0.0000 H   0  0  0  0  0  0  0  0  0  0  0  0
    0.0000    0.0000    0.0000 H   0  0  0  0  0  0  0  0  0  0  0  0
    0.0000    0.0000    0.0000 H   0  0  0  0  0  0  0  0  0  0  0  0
    0.0000    0.0000    0.0000 H   0  0  0  0  0  0  0  0  0  0  0  0
    0.0000    0.0000    0.0000 H   0  0  0  0  0  0  0  0  0  0  0  0
    0.0000    0.0000    0.0000 H   0  0  0  0  0  0  0  0  0  0  0  0
    0.0000    0.0000    0.0000 H   0  0  0  0  0  0  0  0  0  0  0  0
    0.0000    0.0000    0.0000 H   0  0  0  0  0  0  0  0  0  0  0  0
    0.0000    0.0000    0.0000 H   0  0  0  0  0  0  0  0  0  0  0  0
    0.0000    0.0000    0.0000 H   0  0  0  0  0  0  0  0  0  0  0  0
    0.0000    0.0000    0.0000 H   0  0  0  0  0  0  0  0  0  0  0  0
    0.0000    0.0000    0.0000 H   0  0  0  0  0  0  0  0  0  0  0  0
    0.0000    0.0000    0.0000 H   0  0  0  0  0  0  0  0  0  0  0  0
    0.0000    0.0000    0.0000 H   0  0  0  0  0  0  0  0  0  0  0  0
    0.0000    0.0000    0.0000 H   0  0  0  0  0  0  0  0  0  0  0  0
  1 11  1  0
  2 15  1  0
  2 24  1  0
  3  8  1  0
  3  9  1  0
  3 10  1  0
  3 12  1  0
  4  5  1  0
  4  6  1  0
  4  7  1  0
  4 11  1  0
  5  8  1  0
  6  9  1  0
  7 10  1  0
 11 13  1  0
 11 14  1  0
 12 15  1  0
 13 16  2  0
 13 18  1  0
 14 17  2  0
 14 19  1  0
 16 20  1  0
 17 21  1  0
 18 22  2  0
 19 23  2  0
 20 25  2  0
 21 26  2  0
 22 25  1  0
 23 26  1  0
 24 27  1  0
 27 28  2  0
 27 29  1  0
 28 30  1  0
 29 31  2  0
 30 32  2  0
 31 32  1  0
  1 33  1  0
  5 34  1  0
  5 35  1  0
  6 36  1  0
  6 37  1  0
  7 38  1  0
  7 39  1  0
  8 40  1  0
  8 41  1  0
  9 42  1  0
  9 43  1  0
 10 44  1  0
 10 45  1  0
 12 46  1  0
 12 47  1  0
 15 48  1  0
 15 49  1  0
 16 50  1  0
 17 51  1  0
 18 52  1  0
 19 53  1  0
 20 54  1  0
 21 55  1  0
 22 56  1  0
 23 57  1  0
 24 58  1  0
 24 59  1  0
 25 60  1  0
 26 61  1  0
 28 62  1  0
 29 63  1  0
 30 64  1  0
 31 65  1  0
 32 66  1  0
M  CHG  1   3   1
M  END
>  <ALOGPS_LOGP>  (1) 
2.88

>  <ALOGPS_LOGS>  (1) 
-7.38

>  <ALOGPS_SOLUBILITY>  (1) 
1.94e-05 g/l

>  <DATABASE_ID>  (1) 
DB09076

>  <DATABASE_NAME>  (1) 
drugbank

>  <DRUGBANK_ID>  (1) 
DB09076

>  <DRUG_GROUPS>  (1) 
approved

>  <EXACT_MASS>  (1) 
428.258405759

>  <FORMULA>  (1) 
C29H34NO2

>  <GENERIC_NAME>  (1) 
Umeclidinium

>  <INCHI_IDENTIFIER>  (1) 
InChI=1S/C29H34NO2/c31-29(26-12-6-2-7-13-26,27-14-8-3-9-15-27)28-16-19-30(20-17-28,21-18-28)22-23-32-24-25-10-4-1-5-11-25/h1-15,31H,16-24H2/q+1

>  <INCHI_KEY>  (1) 
FVTWTVQXNAJTQP-UHFFFAOYSA-N

>  <JCHEM_ACCEPTOR_COUNT>  (1) 
2

>  <JCHEM_ATOM_COUNT>  (1) 
66

>  <JCHEM_AVERAGE_POLARIZABILITY>  (1) 
50.424531038362716

>  <JCHEM_BIOAVAILABILITY>  (1) 
1

>  <JCHEM_DONOR_COUNT>  (1) 
1

>  <JCHEM_FORMAL_CHARGE>  (1) 
1

>  <JCHEM_GHOSE_FILTER>  (1) 
0

>  <JCHEM_IUPAC>  (1) 
1-[2-(benzyloxy)ethyl]-4-(hydroxydiphenylmethyl)-1-azabicyclo[2.2.2]octan-1-ium

>  <JCHEM_LOGP>  (1) 
0.6822211795282553

>  <JCHEM_MDDR_LIKE_RULE>  (1) 
1

>  <JCHEM_NUMBER_OF_RINGS>  (1) 
5

>  <JCHEM_PHYSIOLOGICAL_CHARGE>  (1) 
1

>  <JCHEM_PKA_STRONGEST_ACIDIC>  (1) 
13.037540528900987

>  <JCHEM_PKA_STRONGEST_BASIC>  (1) 
-3.657179772658708

>  <JCHEM_POLAR_SURFACE_AREA>  (1) 
29.46

>  <JCHEM_REFRACTIVITY>  (1) 
141.7526

>  <JCHEM_ROTATABLE_BOND_COUNT>  (1) 
8

>  <JCHEM_RULE_OF_FIVE>  (1) 
1

>  <JCHEM_TRADITIONAL_IUPAC>  (1) 
1-[2-(benzyloxy)ethyl]-4-(hydroxydiphenylmethyl)-1-azabicyclo[2.2.2]octan-1-ium

>  <JCHEM_VEBER_RULE>  (1) 
1

>  <MOLECULAR_WEIGHT>  (1) 
428.595

>  <PRODUCTS>  (1) 
Anoro; Anoro Ellipta; Incruse; Incruse Ellipta; Trelegy Ellipta

>  <SALTS>  (1) 
Umeclidinium bromide

>  <SMILES>  (1) 
OC(C1=CC=CC=C1)(C1=CC=CC=C1)C12CC[N+](CCOCC3=CC=CC=C3)(CC1)CC2

>  <SYNONYMS>  (1) 
1-[2-(benzyloxy)ethyl]-4-[hydroxy(diphenyl)methyl]-1-azoniabicyclo[2.2.2]octane

$$$$
