
     RDKit          2D

 40 42  0  0  0  0  0  0  0  0999 V2000
    0.0414    0.0686    0.0000 C   0  0  0  0  0  0  0  0  0  0  0  0
   -0.4554    0.7312    0.0000 C   0  0  0  0  0  0  0  0  0  0  0  0
   -0.2484    1.5179    0.0000 C   0  0  0  0  0  0  0  0  0  0  0  0
    0.4969    1.8491    0.0000 S   0  0  0  0  0  0  0  0  0  0  0  0
    0.8695    0.0686    0.0000 C   0  0  0  0  0  0  0  0  0  0  0  0
    1.2422    1.4765    0.0000 C   0  0  0  0  0  0  0  0  0  0  0  0
    1.4078    0.6898    0.0000 C   0  0  0  0  0  0  0  0  0  0  0  0
   -0.8695    2.0975    0.0000 C   0  0  0  0  0  0  0  0  0  0  0  0
   -1.6561    1.8491    0.0000 C   0  0  0  0  0  0  0  0  0  0  0  0
   -1.8632    1.0624    0.0000 C   0  0  0  0  0  0  0  0  0  0  0  0
   -1.2421    0.4828    0.0000 C   0  0  0  0  0  0  0  0  0  0  0  0
    2.1945    0.4413    0.0000 C   0  0  0  0  0  0  0  0  0  0  0  0
    2.8156    0.9797    0.0000 C   0  0  0  0  0  0  0  0  0  0  0  0
    2.6500    1.8077    0.0000 C   0  0  0  0  0  0  0  0  0  0  0  0
    1.8633    2.0562    0.0000 C   0  0  0  0  0  0  0  0  0  0  0  0
   -2.6499    0.8141    0.0000 Cl  0  0  0  0  0  0  0  0  0  0  0  0
   -0.3312   -0.6766    0.0000 O   0  0  0  0  0  0  0  0  0  0  0  0
   -1.1593   -0.6766    0.0000 C   0  0  0  0  0  0  0  0  0  0  0  0
   -1.5734   -1.3804    0.0000 C   0  0  0  0  0  0  0  0  0  0  0  0
   -2.4015   -1.3804    0.0000 N   0  0  0  0  0  0  0  0  0  0  0  0
   -2.8156   -0.6632    0.0000 C   0  0  0  0  0  0  0  0  0  0  0  0
   -2.8156   -2.0975    0.0000 C   0  0  0  0  0  0  0  0  0  0  0  0
    0.0000    0.0000    0.0000 H   0  0  0  0  0  0  0  0  0  0  0  0
    0.0000    0.0000    0.0000 H   0  0  0  0  0  0  0  0  0  0  0  0
    0.0000    0.0000    0.0000 H   0  0  0  0  0  0  0  0  0  0  0  0
    0.0000    0.0000    0.0000 H   0  0  0  0  0  0  0  0  0  0  0  0
    0.0000    0.0000    0.0000 H   0  0  0  0  0  0  0  0  0  0  0  0
    0.0000    0.0000    0.0000 H   0  0  0  0  0  0  0  0  0  0  0  0
    0.0000    0.0000    0.0000 H   0  0  0  0  0  0  0  0  0  0  0  0
    0.0000    0.0000    0.0000 H   0  0  0  0  0  0  0  0  0  0  0  0
    0.0000    0.0000    0.0000 H   0  0  0  0  0  0  0  0  0  0  0  0
    0.0000    0.0000    0.0000 H   0  0  0  0  0  0  0  0  0  0  0  0
    0.0000    0.0000    0.0000 H   0  0  0  0  0  0  0  0  0  0  0  0
    0.0000    0.0000    0.0000 H   0  0  0  0  0  0  0  0  0  0  0  0
    0.0000    0.0000    0.0000 H   0  0  0  0  0  0  0  0  0  0  0  0
    0.0000    0.0000    0.0000 H   0  0  0  0  0  0  0  0  0  0  0  0
    0.0000    0.0000    0.0000 H   0  0  0  0  0  0  0  0  0  0  0  0
    0.0000    0.0000    0.0000 H   0  0  0  0  0  0  0  0  0  0  0  0
    0.0000    0.0000    0.0000 H   0  0  0  0  0  0  0  0  0  0  0  0
    0.0000    0.0000    0.0000 H   0  0  0  0  0  0  0  0  0  0  0  0
  3  4  1  0
  1  5  2  0
  4  6  1  0
  2  3  2  0
  5  7  1  0
  1  2  1  0
  6  7  2  0
  3  8  1  0
  8  9  2  0
  9 10  1  0
 10 11  2  0
  2 11  1  0
  7 12  1  0
 12 13  2  0
 13 14  1  0
 14 15  2  0
  6 15  1  0
 10 16  1  0
  1 17  1  0
 17 18  1  0
 18 19  1  0
 19 20  1  0
 20 21  1  0
 20 22  1  0
  5 23  1  0
  8 24  1  0
  9 25  1  0
 11 26  1  0
 12 27  1  0
 13 28  1  0
 14 29  1  0
 15 30  1  0
 18 31  1  0
 18 32  1  0
 19 33  1  0
 19 34  1  0
 21 35  1  0
 21 36  1  0
 21 37  1  0
 22 38  1  0
 22 39  1  0
 22 40  1  0
M  END
>  <ALOGPS_LOGP>  (1) 
4.74

>  <ALOGPS_LOGS>  (1) 
-5.63

>  <ALOGPS_SOLUBILITY>  (1) 
7.77e-04 g/l

>  <DATABASE_ID>  (1) 
DB09225

>  <DATABASE_NAME>  (1) 
drugbank

>  <DRUGBANK_ID>  (1) 
DB09225

>  <DRUG_GROUPS>  (1) 
approved; investigational

>  <EXACT_MASS>  (1) 
331.0797631

>  <FORMULA>  (1) 
C18H18ClNOS

>  <GENERIC_NAME>  (1) 
Zotepine

>  <INCHI_IDENTIFIER>  (1) 
InChI=1S/C18H18ClNOS/c1-20(2)9-10-21-16-11-13-5-3-4-6-17(13)22-18-8-7-14(19)12-15(16)18/h3-8,11-12H,9-10H2,1-2H3

>  <INCHI_KEY>  (1) 
HDOZVRUNCMBHFH-UHFFFAOYSA-N

>  <INTERNATIONAL_BRANDS>  (1) 
Lodopin; Losizopilon; Setous; Zoleptil

>  <JCHEM_ACCEPTOR_COUNT>  (1) 
2

>  <JCHEM_ATOM_COUNT>  (1) 
40

>  <JCHEM_AVERAGE_POLARIZABILITY>  (1) 
36.2053373032629

>  <JCHEM_BIOAVAILABILITY>  (1) 
1

>  <JCHEM_DONOR_COUNT>  (1) 
0

>  <JCHEM_FORMAL_CHARGE>  (1) 
0

>  <JCHEM_GHOSE_FILTER>  (1) 
1

>  <JCHEM_IUPAC>  (1) 
[2-({6-chloro-2-thiatricyclo[9.4.0.0³,⁸]pentadeca-1(15),3,5,7,9,11,13-heptaen-9-yl}oxy)ethyl]dimethylamine

>  <JCHEM_LOGP>  (1) 
4.5105601879999995

>  <JCHEM_MDDR_LIKE_RULE>  (1) 
0

>  <JCHEM_NUMBER_OF_RINGS>  (1) 
3

>  <JCHEM_PHYSIOLOGICAL_CHARGE>  (1) 
1

>  <JCHEM_PKA_STRONGEST_BASIC>  (1) 
8.92264646745926

>  <JCHEM_POLAR_SURFACE_AREA>  (1) 
12.47

>  <JCHEM_REFRACTIVITY>  (1) 
97.6063

>  <JCHEM_ROTATABLE_BOND_COUNT>  (1) 
4

>  <JCHEM_RULE_OF_FIVE>  (1) 
1

>  <JCHEM_TRADITIONAL_IUPAC>  (1) 
compound-4

>  <JCHEM_VEBER_RULE>  (1) 
1

>  <MOLECULAR_WEIGHT>  (1) 
331.86

>  <SMILES>  (1) 
CN(C)CCOC1=CC2=CC=CC=C2SC2=CC=C(Cl)C=C12

$$$$
