
     RDKit          2D

 15 13  0  0  0  0  0  0  0  0999 V2000
   -1.4290    0.0000    0.0000 C   0  0  0  0  0  0  0  0  0  0  0  0
   -0.7145    0.4125    0.0000 C   0  0  0  0  0  0  0  0  0  0  0  0
    0.7145    0.4125    0.0000 C   0  0  0  0  0  0  0  0  0  0  0  0
    0.0000    0.0000    0.0000 C   0  0  0  0  0  0  0  0  0  0  0  0
    0.7145    1.2375    0.0000 O   0  0  0  0  0  0  0  0  0  0  0  0
    0.0000   -0.8250    0.0000 S   0  0  0  0  0  0  0  0  0  0  0  0
    0.7145   -1.2375    0.0000 Au  0  0  0  0  0  0  0  0  0  0  0  0
   -1.4290   -0.8251    0.0000 O   0  0  0  0  0  0  0  0  0  0  0  0
    1.4290    0.0000    0.0000 O   0  0  0  0  0  0  0  0  0  0  0  0
    2.1436    0.4125    0.0000 Na  0  0  0  0  0  0  0  0  0  0  0  0
   -2.1436    0.4124    0.0000 O   0  0  0  0  0  0  0  0  0  0  0  0
    0.0000    0.0000    0.0000 H   0  0  0  0  0  0  0  0  0  0  0  0
    0.0000    0.0000    0.0000 H   0  0  0  0  0  0  0  0  0  0  0  0
    0.0000    0.0000    0.0000 H   0  0  0  0  0  0  0  0  0  0  0  0
    0.0000    0.0000    0.0000 H   0  0  0  0  0  0  0  0  0  0  0  0
  8  1  2  0
  1  2  1  0
  5  3  2  0
  2  4  1  0
  4  3  1  0
  6  4  1  0
  9  3  1  0
 11  1  1  0
  6  7  1  0
  2 12  1  0
  2 13  1  0
  4 14  1  0
 11 15  1  0
M  CHG  2   9  -1  10   1
M  END
>  <ALOGPS_LOGP>  (1) 
-0.14

>  <ALOGPS_LOGS>  (1) 
-1.02

>  <ALOGPS_SOLUBILITY>  (1) 
3.52e+01 g/l

>  <DATABASE_ID>  (1) 
DB09276

>  <DATABASE_NAME>  (1) 
drugbank

>  <DRUGBANK_ID>  (1) 
DB09276

>  <DRUG_GROUPS>  (1) 
approved

>  <EXACT_MASS>  (1) 
367.939368

>  <FORMULA>  (1) 
C4H4AuNaO4S

>  <GENERIC_NAME>  (1) 
Sodium aurothiomalate

>  <INCHI_IDENTIFIER>  (1) 
InChI=1S/C4H6O4S.Au.Na/c5-3(6)1-2(9)4(7)8;;/h2,9H,1H2,(H,5,6)(H,7,8);;/q;2*+1/p-2

>  <INCHI_KEY>  (1) 
LTEMOXGFFHXNNS-UHFFFAOYSA-L

>  <INTERNATIONAL_BRANDS>  (1) 
Myocrisin

>  <JCHEM_ACCEPTOR_COUNT>  (1) 
4

>  <JCHEM_ATOM_COUNT>  (1) 
15

>  <JCHEM_AVERAGE_POLARIZABILITY>  (1) 
14.174439518723199

>  <JCHEM_BIOAVAILABILITY>  (1) 
1

>  <JCHEM_DONOR_COUNT>  (1) 
1

>  <JCHEM_FORMAL_CHARGE>  (1) 
0

>  <JCHEM_GHOSE_FILTER>  (1) 
0

>  <JCHEM_IUPAC>  (1) 
sodium 2-(auriosulfanyl)-3-carboxypropanoate

>  <JCHEM_LOGP>  (1) 
-0.10509999999999987

>  <JCHEM_MDDR_LIKE_RULE>  (1) 
0

>  <JCHEM_NUMBER_OF_RINGS>  (1) 
0

>  <JCHEM_PHYSIOLOGICAL_CHARGE>  (1) 
-2

>  <JCHEM_PKA>  (1) 
4.79612669104299

>  <JCHEM_PKA_STRONGEST_ACIDIC>  (1) 
3.1823613629272933

>  <JCHEM_POLAR_SURFACE_AREA>  (1) 
77.43

>  <JCHEM_REFRACTIVITY>  (1) 
40.9412

>  <JCHEM_ROTATABLE_BOND_COUNT>  (1) 
4

>  <JCHEM_RULE_OF_FIVE>  (1) 
1

>  <JCHEM_TRADITIONAL_IUPAC>  (1) 
sodium 2-(auriosulfanyl)-3-carboxypropanoate

>  <JCHEM_VEBER_RULE>  (1) 
0

>  <MOLECULAR_WEIGHT>  (1) 
368.09

>  <PRODUCTS>  (1) 
Myochrysine; Sodium Aurothiomalate Injection BP

>  <SMILES>  (1) 
[Na+].OC(=O)CC(S[Au])C([O-])=O

>  <SYNONYMS>  (1) 
Gold sodium thiomalate

$$$$
