
     RDKit          2D

 22 22  0  0  0  0  0  0  0  0999 V2000
   -0.3705    0.7982    0.0000 C   0  0  0  0  0  0  0  0  0  0  0  0
    0.3398    0.3934    0.0000 C   0  0  0  0  0  0  0  0  0  0  0  0
    0.3246   -0.4315    0.0000 C   0  0  0  0  0  0  0  0  0  0  0  0
   -1.0834    0.3729    0.0000 C   0  0  0  0  0  0  0  0  0  0  0  0
   -0.3705   -0.8745    0.0000 C   0  0  0  0  0  0  0  0  0  0  0  0
   -1.0834   -0.4544    0.0000 C   0  0  0  0  0  0  0  0  0  0  0  0
   -0.3705    1.6231    0.0000 C   0  0  0  0  0  0  0  0  0  0  0  0
    1.1088   -0.8185    0.0000 N   0  0  0  0  0  0  0  0  0  0  0  0
    1.1088   -1.5976    0.0000 C   0  0  0  0  0  0  0  0  0  0  0  0
   -1.0834    2.0280    0.0000 O   0  0  0  0  0  0  0  0  0  0  0  0
    1.0706    0.7982    0.0000 I   0  0  0  0  0  0  0  0  0  0  0  0
    0.3934   -2.0280    0.0000 O   0  0  0  0  0  0  0  0  0  0  0  0
   -1.8370    0.7982    0.0000 I   0  0  0  0  0  0  0  0  0  0  0  0
   -0.3705   -1.6995    0.0000 I   0  0  0  0  0  0  0  0  0  0  0  0
    0.3398    2.0280    0.0000 O   0  0  0  0  0  0  0  0  0  0  0  0
    1.8370   -1.9720    0.0000 C   0  0  0  0  0  0  0  0  0  0  0  0
    0.0000    0.0000    0.0000 H   0  0  0  0  0  0  0  0  0  0  0  0
    0.0000    0.0000    0.0000 H   0  0  0  0  0  0  0  0  0  0  0  0
    0.0000    0.0000    0.0000 H   0  0  0  0  0  0  0  0  0  0  0  0
    0.0000    0.0000    0.0000 H   0  0  0  0  0  0  0  0  0  0  0  0
    0.0000    0.0000    0.0000 H   0  0  0  0  0  0  0  0  0  0  0  0
    0.0000    0.0000    0.0000 H   0  0  0  0  0  0  0  0  0  0  0  0
  2  1  2  0
  3  2  1  0
  4  1  1  0
  5  6  1  0
  6  4  2  0
  7  1  1  0
  8  3  1  0
  9  8  1  0
 10  7  2  0
 11  2  1  0
 12  9  2  0
 13  4  1  0
 14  5  1  0
 15  7  1  0
 16  9  1  0
  3  5  2  0
  6 17  1  0
  8 18  1  0
 15 19  1  0
 16 20  1  0
 16 21  1  0
 16 22  1  0
M  END
>  <ALOGPS_LOGP>  (1) 
3.03

>  <ALOGPS_LOGS>  (1) 
-4.00

>  <ALOGPS_SOLUBILITY>  (1) 
5.59e-02 g/l

>  <DATABASE_ID>  (1) 
DB09347

>  <DATABASE_NAME>  (1) 
drugbank

>  <DRUGBANK_ID>  (1) 
DB09347

>  <DRUG_GROUPS>  (1) 
approved

>  <EXACT_MASS>  (1) 
556.74818

>  <FORMULA>  (1) 
C9H6I3NO3

>  <GENERIC_NAME>  (1) 
Acetrizoic acid

>  <INCHI_IDENTIFIER>  (1) 
InChI=1S/C9H6I3NO3/c1-3(14)13-8-5(11)2-4(10)6(7(8)12)9(15)16/h2H,1H3,(H,13,14)(H,15,16)

>  <INCHI_KEY>  (1) 
GNOGSFBXBWBTIG-UHFFFAOYSA-N

>  <JCHEM_ACCEPTOR_COUNT>  (1) 
3

>  <JCHEM_ATOM_COUNT>  (1) 
22

>  <JCHEM_AVERAGE_POLARIZABILITY>  (1) 
33.43255047111906

>  <JCHEM_BIOAVAILABILITY>  (1) 
1

>  <JCHEM_DONOR_COUNT>  (1) 
2

>  <JCHEM_FORMAL_CHARGE>  (1) 
0

>  <JCHEM_GHOSE_FILTER>  (1) 
0

>  <JCHEM_IUPAC>  (1) 
3-acetamido-2,4,6-triiodobenzoic acid

>  <JCHEM_LOGP>  (1) 
3.655372526333333

>  <JCHEM_MDDR_LIKE_RULE>  (1) 
0

>  <JCHEM_NUMBER_OF_RINGS>  (1) 
1

>  <JCHEM_PHYSIOLOGICAL_CHARGE>  (1) 
-1

>  <JCHEM_PKA>  (1) 
12.284889338151194

>  <JCHEM_PKA_STRONGEST_ACIDIC>  (1) 
2.3266389031747585

>  <JCHEM_PKA_STRONGEST_BASIC>  (1) 
-4.530555343812342

>  <JCHEM_POLAR_SURFACE_AREA>  (1) 
66.4

>  <JCHEM_REFRACTIVITY>  (1) 
88.26470000000002

>  <JCHEM_ROTATABLE_BOND_COUNT>  (1) 
2

>  <JCHEM_RULE_OF_FIVE>  (1) 
0

>  <JCHEM_TRADITIONAL_IUPAC>  (1) 
acetrizoic acid

>  <JCHEM_VEBER_RULE>  (1) 
0

>  <MOLECULAR_WEIGHT>  (1) 
556.864

>  <SALTS>  (1) 
Acetrizoate sodium

>  <SMILES>  (1) 
CC(=O)NC1=C(I)C(C(O)=O)=C(I)C=C1I

$$$$
