 
     RDKit          2D

 70 73  0  0  1  0  0  0  0  0999 V2000
   31.7410  -19.3874    0.0000 C   0  0  0  0  0  0  0  0  0  0  0  0
   31.7410  -18.5624    0.0000 C   0  0  0  0  0  0  0  0  0  0  0  0
   31.0397  -18.1499    0.0000 C   0  0  0  0  0  0  0  0  0  0  0  0
   30.2972  -18.5624    0.0000 C   0  0  0  0  0  0  0  0  0  0  0  0
   30.2972  -19.3874    0.0000 C   0  0  0  0  0  0  0  0  0  0  0  0
   31.0397  -19.8000    0.0000 C   0  0  0  0  0  0  0  0  0  0  0  0
   29.4721  -18.5624    0.0000 C   0  0  0  0  0  0  0  0  0  0  0  0
   29.4721  -19.3874    0.0000 C   0  0  0  0  0  0  0  0  0  0  0  0
   32.4423  -19.8000    0.0000 O   0  0  0  0  0  0  0  0  0  0  0  0
   32.4423  -18.1499    0.0000 O   0  0  0  0  0  0  0  0  0  0  0  0
   28.8121  -18.0674    0.0000 C   0  0  0  0  0  0  0  0  0  0  0  0
   28.1109  -18.4799    0.0000 N   0  0  0  0  0  0  0  0  0  0  0  0
   27.4096  -18.0674    0.0000 C   0  0  0  0  0  0  0  0  0  0  0  0
   28.1109  -19.3049    0.0000 C   0  0  0  0  0  0  0  0  0  0  0  0
   33.1436  -18.5624    0.0000 C   0  0  0  0  0  0  0  0  0  0  0  0
   33.1436  -19.3874    0.0000 C   0  0  0  0  0  0  0  0  0  0  0  0
   26.7083  -18.4799    0.0000 C   0  0  0  0  0  0  0  0  0  0  0  0
   26.0070  -18.0674    0.0000 C   0  0  0  0  0  0  0  0  0  0  0  0
   25.3057  -18.4799    0.0000 N   0  0  0  0  0  0  0  0  0  0  0  0
   23.4907  -18.0674    0.0000 C   0  0  0  0  0  0  0  0  0  0  0  0
   24.1507  -17.5311    0.0000 C   0  0  0  0  0  0  0  0  0  0  0  0
   24.9345  -17.7374    0.0000 C   0  0  0  0  0  0  0  0  0  0  0  0
   23.4907  -18.8925    0.0000 C   0  0  0  0  0  0  0  0  0  0  0  0
   24.9345  -19.2224    0.0000 C   0  0  0  0  0  0  0  0  0  0  0  0
   24.1507  -19.3874    0.0000 C   0  0  0  0  0  0  0  0  0  0  0  0
   25.4547  -17.0970    0.0000 O   0  0  0  0  0  0  0  0  0  0  0  0
   22.7762  -17.6549    0.0000 C   0  0  0  0  0  0  0  0  0  0  0  0
   22.0617  -18.0674    0.0000 C   0  0  0  0  0  0  0  0  0  0  0  0
   22.0617  -18.8925    0.0000 C   0  0  0  0  0  0  0  0  0  0  0  0
   22.7762  -19.3049    0.0000 C   0  0  0  0  0  0  0  0  0  0  0  0
   21.3362  -17.6484    0.0000 O   0  0  0  0  0  0  0  0  0  0  0  0
   20.6259  -18.0584    0.0000 C   0  0  0  0  0  0  0  0  0  0  0  0
   21.3362  -19.3115    0.0000 O   0  0  0  0  0  0  0  0  0  0  0  0
   20.6259  -18.9015    0.0000 C   0  0  0  0  0  0  0  0  0  0  0  0
    0.0000    0.0000    0.0000 H   0  0  0  0  0  0  0  0  0  0  0  0
    0.0000    0.0000    0.0000 H   0  0  0  0  0  0  0  0  0  0  0  0
    0.0000    0.0000    0.0000 H   0  0  0  0  0  0  0  0  0  0  0  0
    0.0000    0.0000    0.0000 H   0  0  0  0  0  0  0  0  0  0  0  0
    0.0000    0.0000    0.0000 H   0  0  0  0  0  0  0  0  0  0  0  0
    0.0000    0.0000    0.0000 H   0  0  0  0  0  0  0  0  0  0  0  0
    0.0000    0.0000    0.0000 H   0  0  0  0  0  0  0  0  0  0  0  0
    0.0000    0.0000    0.0000 H   0  0  0  0  0  0  0  0  0  0  0  0
    0.0000    0.0000    0.0000 H   0  0  0  0  0  0  0  0  0  0  0  0
    0.0000    0.0000    0.0000 H   0  0  0  0  0  0  0  0  0  0  0  0
    0.0000    0.0000    0.0000 H   0  0  0  0  0  0  0  0  0  0  0  0
    0.0000    0.0000    0.0000 H   0  0  0  0  0  0  0  0  0  0  0  0
    0.0000    0.0000    0.0000 H   0  0  0  0  0  0  0  0  0  0  0  0
    0.0000    0.0000    0.0000 H   0  0  0  0  0  0  0  0  0  0  0  0
    0.0000    0.0000    0.0000 H   0  0  0  0  0  0  0  0  0  0  0  0
    0.0000    0.0000    0.0000 H   0  0  0  0  0  0  0  0  0  0  0  0
    0.0000    0.0000    0.0000 H   0  0  0  0  0  0  0  0  0  0  0  0
    0.0000    0.0000    0.0000 H   0  0  0  0  0  0  0  0  0  0  0  0
    0.0000    0.0000    0.0000 H   0  0  0  0  0  0  0  0  0  0  0  0
    0.0000    0.0000    0.0000 H   0  0  0  0  0  0  0  0  0  0  0  0
    0.0000    0.0000    0.0000 H   0  0  0  0  0  0  0  0  0  0  0  0
    0.0000    0.0000    0.0000 H   0  0  0  0  0  0  0  0  0  0  0  0
    0.0000    0.0000    0.0000 H   0  0  0  0  0  0  0  0  0  0  0  0
    0.0000    0.0000    0.0000 H   0  0  0  0  0  0  0  0  0  0  0  0
    0.0000    0.0000    0.0000 H   0  0  0  0  0  0  0  0  0  0  0  0
    0.0000    0.0000    0.0000 H   0  0  0  0  0  0  0  0  0  0  0  0
    0.0000    0.0000    0.0000 H   0  0  0  0  0  0  0  0  0  0  0  0
    0.0000    0.0000    0.0000 H   0  0  0  0  0  0  0  0  0  0  0  0
    0.0000    0.0000    0.0000 H   0  0  0  0  0  0  0  0  0  0  0  0
    0.0000    0.0000    0.0000 H   0  0  0  0  0  0  0  0  0  0  0  0
    0.0000    0.0000    0.0000 H   0  0  0  0  0  0  0  0  0  0  0  0
    0.0000    0.0000    0.0000 H   0  0  0  0  0  0  0  0  0  0  0  0
    0.0000    0.0000    0.0000 H   0  0  0  0  0  0  0  0  0  0  0  0
    0.0000    0.0000    0.0000 H   0  0  0  0  0  0  0  0  0  0  0  0
    0.0000    0.0000    0.0000 H   0  0  0  0  0  0  0  0  0  0  0  0
    0.0000    0.0000    0.0000 H   0  0  0  0  0  0  0  0  0  0  0  0
  1  2  2  0
  2  3  1  0
  3  4  2  0
  4  5  1  0
  5  6  2  0
  1  6  1  0
  4  7  1  0
  7  8  1  0
  5  8  1  0
  1  9  1  0
  2 10  1  0
  7 11  1  6
 11 12  1  0
 12 13  1  0
 12 14  1  0
 10 15  1  0
  9 16  1  0
 13 17  1  0
 17 18  1  0
 18 19  1  0
 22 19  1  0
 20 23  2  0
 19 24  1  0
 21 22  1  0
 23 25  1  0
 20 21  1  0
 24 25  1  0
 22 26  2  0
 20 27  1  0
 27 28  2  0
 28 29  1  0
 29 30  2  0
 23 30  1  0
 28 31  1  0
 31 32  1  0
 29 33  1  0
 33 34  1  0
  3 35  1  0
  6 36  1  0
  7 37  1  0
  8 38  1  0
  8 39  1  0
 11 40  1  0
 11 41  1  0
 13 42  1  0
 13 43  1  0
 14 44  1  0
 14 45  1  0
 14 46  1  0
 15 47  1  0
 15 48  1  0
 15 49  1  0
 16 50  1  0
 16 51  1  0
 16 52  1  0
 17 53  1  0
 17 54  1  0
 18 55  1  0
 18 56  1  0
 21 57  1  0
 21 58  1  0
 24 59  1  0
 24 60  1  0
 25 61  1  0
 25 62  1  0
 27 63  1  0
 30 64  1  0
 32 65  1  0
 32 66  1  0
 32 67  1  0
 34 68  1  0
 34 69  1  0
 34 70  1  0
M  END
>  <ALOGPS_LOGP>  (1) 
3.17

>  <ALOGPS_LOGS>  (1) 
-4.36

>  <ALOGPS_SOLUBILITY>  (1) 
2.02e-02 g/l

>  <DATABASE_ID>  (1) 
DB09083

>  <DATABASE_NAME>  (1) 
drugbank

>  <DRUGBANK_ID>  (1) 
DB09083

>  <DRUG_GROUPS>  (1) 
approved

>  <EXACT_MASS>  (1) 
468.262422267

>  <FORMULA>  (1) 
C27H36N2O5

>  <GENERIC_NAME>  (1) 
Ivabradine

>  <INCHI_IDENTIFIER>  (1) 
InChI=1S/C27H36N2O5/c1-28(17-21-11-20-14-25(33-4)26(34-5)16-22(20)21)8-6-9-29-10-7-18-12-23(31-2)24(32-3)13-19(18)15-27(29)30/h12-14,16,21H,6-11,15,17H2,1-5H3/t21-/m1/s1

>  <INCHI_KEY>  (1) 
ACRHBAYQBXXRTO-OAQYLSRUSA-N

>  <INTERNATIONAL_BRANDS>  (1) 
Bradia; Ivabid

>  <JCHEM_ACCEPTOR_COUNT>  (1) 
6

>  <JCHEM_ATOM_COUNT>  (1) 
70

>  <JCHEM_AVERAGE_POLARIZABILITY>  (1) 
54.557533241178454

>  <JCHEM_BIOAVAILABILITY>  (1) 
1

>  <JCHEM_DONOR_COUNT>  (1) 
0

>  <JCHEM_FORMAL_CHARGE>  (1) 
0

>  <JCHEM_GHOSE_FILTER>  (1) 
0

>  <JCHEM_IUPAC>  (1) 
3-[3-({[(7S)-3,4-dimethoxybicyclo[4.2.0]octa-1,3,5-trien-7-yl]methyl}(methyl)amino)propyl]-7,8-dimethoxy-2,3,4,5-tetrahydro-1H-3-benzazepin-2-one

>  <JCHEM_LOGP>  (1) 
2.7224452983333336

>  <JCHEM_MDDR_LIKE_RULE>  (1) 
1

>  <JCHEM_NUMBER_OF_RINGS>  (1) 
4

>  <JCHEM_PHYSIOLOGICAL_CHARGE>  (1) 
1

>  <JCHEM_PKA_STRONGEST_BASIC>  (1) 
9.367331557642714

>  <JCHEM_POLAR_SURFACE_AREA>  (1) 
60.47000000000001

>  <JCHEM_REFRACTIVITY>  (1) 
133.50529999999998

>  <JCHEM_ROTATABLE_BOND_COUNT>  (1) 
10

>  <JCHEM_RULE_OF_FIVE>  (1) 
1

>  <JCHEM_TRADITIONAL_IUPAC>  (1) 
ivabradine

>  <JCHEM_VEBER_RULE>  (1) 
0

>  <MOLECULAR_WEIGHT>  (1) 
468.594

>  <PRODUCTS>  (1) 
Corlanor; Corlentor; Lancora; Procoralan

>  <SALTS>  (1) 
Ivabradine hydrochloride

>  <SMILES>  (1) 
COC1=C(OC)C=C2[C@@H](CN(C)CCCN3CCC4=CC(OC)=C(OC)C=C4CC3=O)CC2=C1

>  <SYNONYMS>  (1) 
3-[3-({[(7S)-3,4-dimethoxybicyclo[4.2.0]octa-1,3,5-trien-7-yl]methyl}(methyl)amino)propyl]-7,8-dimethoxy-2,3,4,5-tetrahydro-1H-3-benzazepin-2-one; Ivabradin; Ivabradina; Ivabradine; Ivabradinum

$$$$
