
     RDKit          2D

  1  0  0  0  0  0  0  0  0  0999 V2000
    0.0000    0.0000    0.0000 Xe  0  0  0  0  0  0  0  0  0  0  0  0
M  ISO  1   1 133
M  END
>  <DATABASE_ID>  (1) 
DB09315

>  <DATABASE_NAME>  (1) 
drugbank

>  <DRUGBANK_ID>  (1) 
DB09315

>  <DRUG_GROUPS>  (1) 
approved

>  <EXACT_MASS>  (1) 
132.90590566

>  <FORMULA>  (1) 
Xe

>  <GENERIC_NAME>  (1) 
Xenon-133

>  <INCHI_IDENTIFIER>  (1) 
InChI=1S/Xe/i1+2

>  <INCHI_KEY>  (1) 
FHNFHKCVQCLJFQ-NJFSPNSNSA-N

>  <JCHEM_ACCEPTOR_COUNT>  (1) 
0

>  <JCHEM_ATOM_COUNT>  (1) 
1

>  <JCHEM_AVERAGE_POLARIZABILITY>  (1) 
1.7784

>  <JCHEM_BIOAVAILABILITY>  (1) 
1

>  <JCHEM_DONOR_COUNT>  (1) 
0

>  <JCHEM_FORMAL_CHARGE>  (1) 
0

>  <JCHEM_GHOSE_FILTER>  (1) 
0

>  <JCHEM_IUPAC>  (1) 
(¹³³Xe)xenon

>  <JCHEM_LOGP>  (1) 
0.0

>  <JCHEM_MDDR_LIKE_RULE>  (1) 
0

>  <JCHEM_NUMBER_OF_RINGS>  (1) 
0

>  <JCHEM_PHYSIOLOGICAL_CHARGE>  (1) 
0

>  <JCHEM_POLAR_SURFACE_AREA>  (1) 
0.0

>  <JCHEM_REFRACTIVITY>  (1) 
0.0

>  <JCHEM_ROTATABLE_BOND_COUNT>  (1) 
0

>  <JCHEM_RULE_OF_FIVE>  (1) 
1

>  <JCHEM_TRADITIONAL_IUPAC>  (1) 
(¹³³Xe)xenon

>  <JCHEM_VEBER_RULE>  (1) 
1

>  <MOLECULAR_WEIGHT>  (1) 
132.9059

>  <PRODUCTS>  (1) 
Xenon; Xenon, Xe-133

>  <SMILES>  (1) 
[133Xe]

>  <SYNONYMS>  (1) 
Xenon (133 xe); Xenon (133Xe) gas; Xenon Xe 133; Xenon XE-133; Xenon, Xe-133

$$$$
