
     RDKit          2D

 56 56  0  0  0  0  0  0  0  0999 V2000
   -0.0026    0.8255    0.0000 C   0  0  0  0  0  0  0  0  0  0  0  0
   -0.0026    0.0005    0.0000 C   0  0  0  0  0  0  0  0  0  0  0  0
    0.7118   -0.4119    0.0000 C   0  0  0  0  0  0  0  0  0  0  0  0
    1.4263    0.0005    0.0000 C   0  0  0  0  0  0  0  0  0  0  0  0
    1.4263    0.8255    0.0000 C   0  0  0  0  0  0  0  0  0  0  0  0
    0.7118    1.2381    0.0000 C   0  0  0  0  0  0  0  0  0  0  0  0
    2.1416    1.2385    0.0000 I   0  0  0  0  0  0  0  0  0  0  0  0
   -0.7171    1.2381    0.0000 I   0  0  0  0  0  0  0  0  0  0  0  0
    0.7118   -1.2369    0.0000 I   0  0  0  0  0  0  0  0  0  0  0  0
    2.1418   -0.4119    0.0000 N   0  0  0  0  0  0  0  0  0  0  0  0
   -0.7171   -0.4119    0.0000 C   0  0  0  0  0  0  0  0  0  0  0  0
   -1.4316    0.0005    0.0000 N   0  0  0  0  0  0  0  0  0  0  0  0
   -2.1460   -0.4119    0.0000 C   0  0  0  0  0  0  0  0  0  0  0  0
   -2.8606    0.0005    0.0000 C   0  0  0  0  0  0  0  0  0  0  0  0
   -3.5750   -0.4119    0.0000 C   0  0  0  0  0  0  0  0  0  0  0  0
   -4.2895    0.0005    0.0000 O   0  0  0  0  0  0  0  0  0  0  0  0
   -0.7171   -1.2376    0.0000 O   0  0  0  0  0  0  0  0  0  0  0  0
   -2.8606    0.8251    0.0000 O   0  0  0  0  0  0  0  0  0  0  0  0
    0.7118    2.0626    0.0000 C   0  0  0  0  0  0  0  0  0  0  0  0
    1.4276    2.4759    0.0000 N   0  0  0  0  0  0  0  0  0  0  0  0
   -0.0015    2.4745    0.0000 O   0  0  0  0  0  0  0  0  0  0  0  0
    2.1430    2.0626    0.0000 C   0  0  0  0  0  0  0  0  0  0  0  0
    2.8576    2.4752    0.0000 C   0  0  0  0  0  0  0  0  0  0  0  0
    3.5721    2.0626    0.0000 O   0  0  0  0  0  0  0  0  0  0  0  0
    2.8576    0.0020    0.0000 C   0  0  0  0  0  0  0  0  0  0  0  0
    3.5750   -0.4115    0.0000 C   0  0  0  0  0  0  0  0  0  0  0  0
    2.8571    0.8246    0.0000 O   0  0  0  0  0  0  0  0  0  0  0  0
    2.1423   -1.2382    0.0000 C   0  0  0  0  0  0  0  0  0  0  0  0
    2.8588   -1.6511    0.0000 C   0  0  0  0  0  0  0  0  0  0  0  0
    3.5739   -1.2377    0.0000 C   0  0  0  0  0  0  0  0  0  0  0  0
    2.8593   -2.4759    0.0000 O   0  0  0  0  0  0  0  0  0  0  0  0
    4.2895   -1.6502    0.0000 O   0  0  0  0  0  0  0  0  0  0  0  0
    0.0000    0.0000    0.0000 H   0  0  0  0  0  0  0  0  0  0  0  0
    0.0000    0.0000    0.0000 H   0  0  0  0  0  0  0  0  0  0  0  0
    0.0000    0.0000    0.0000 H   0  0  0  0  0  0  0  0  0  0  0  0
    0.0000    0.0000    0.0000 H   0  0  0  0  0  0  0  0  0  0  0  0
    0.0000    0.0000    0.0000 H   0  0  0  0  0  0  0  0  0  0  0  0
    0.0000    0.0000    0.0000 H   0  0  0  0  0  0  0  0  0  0  0  0
    0.0000    0.0000    0.0000 H   0  0  0  0  0  0  0  0  0  0  0  0
    0.0000    0.0000    0.0000 H   0  0  0  0  0  0  0  0  0  0  0  0
    0.0000    0.0000    0.0000 H   0  0  0  0  0  0  0  0  0  0  0  0
    0.0000    0.0000    0.0000 H   0  0  0  0  0  0  0  0  0  0  0  0
    0.0000    0.0000    0.0000 H   0  0  0  0  0  0  0  0  0  0  0  0
    0.0000    0.0000    0.0000 H   0  0  0  0  0  0  0  0  0  0  0  0
    0.0000    0.0000    0.0000 H   0  0  0  0  0  0  0  0  0  0  0  0
    0.0000    0.0000    0.0000 H   0  0  0  0  0  0  0  0  0  0  0  0
    0.0000    0.0000    0.0000 H   0  0  0  0  0  0  0  0  0  0  0  0
    0.0000    0.0000    0.0000 H   0  0  0  0  0  0  0  0  0  0  0  0
    0.0000    0.0000    0.0000 H   0  0  0  0  0  0  0  0  0  0  0  0
    0.0000    0.0000    0.0000 H   0  0  0  0  0  0  0  0  0  0  0  0
    0.0000    0.0000    0.0000 H   0  0  0  0  0  0  0  0  0  0  0  0
    0.0000    0.0000    0.0000 H   0  0  0  0  0  0  0  0  0  0  0  0
    0.0000    0.0000    0.0000 H   0  0  0  0  0  0  0  0  0  0  0  0
    0.0000    0.0000    0.0000 H   0  0  0  0  0  0  0  0  0  0  0  0
    0.0000    0.0000    0.0000 H   0  0  0  0  0  0  0  0  0  0  0  0
    0.0000    0.0000    0.0000 H   0  0  0  0  0  0  0  0  0  0  0  0
  1  2  2  0
  2  3  1  0
  3  4  2  0
  4  5  1  0
  5  6  2  0
  1  6  1  0
  5  7  1  0
  1  8  1  0
  3  9  1  0
  4 10  1  0
  2 11  1  0
 11 12  1  0
 12 13  1  0
 13 14  1  0
 14 15  1  0
 15 16  1  0
 11 17  2  0
 14 18  1  0
  6 19  1  0
 19 20  1  0
 19 21  2  0
 20 22  1  0
 22 23  1  0
 23 24  1  0
 10 25  1  0
 25 26  1  0
 25 27  2  0
 10 28  1  0
 28 29  1  0
 29 30  1  0
 29 31  1  0
 30 32  1  0
 12 33  1  0
 13 34  1  0
 13 35  1  0
 14 36  1  0
 15 37  1  0
 15 38  1  0
 16 39  1  0
 18 40  1  0
 20 41  1  0
 22 42  1  0
 22 43  1  0
 23 44  1  0
 23 45  1  0
 24 46  1  0
 26 47  1  0
 26 48  1  0
 26 49  1  0
 28 50  1  0
 28 51  1  0
 29 52  1  0
 30 53  1  0
 30 54  1  0
 31 55  1  0
 32 56  1  0
M  END
>  <ALOGPS_LOGP>  (1) 
-2.51

>  <ALOGPS_LOGS>  (1) 
-3.15

>  <ALOGPS_SOLUBILITY>  (1) 
5.59e-01 g/l

>  <DATABASE_ID>  (1) 
DB09135

>  <DATABASE_NAME>  (1) 
drugbank

>  <DRUGBANK_ID>  (1) 
DB09135

>  <DRUG_GROUPS>  (1) 
approved

>  <EXACT_MASS>  (1) 
790.86975

>  <FORMULA>  (1) 
C18H24I3N3O8

>  <GENERIC_NAME>  (1) 
Ioxilan

>  <INCHI_IDENTIFIER>  (1) 
InChI=1S/C18H24I3N3O8/c1-8(28)24(5-10(30)7-27)16-14(20)11(17(31)22-2-3-25)13(19)12(15(16)21)18(32)23-4-9(29)6-26/h9-10,25-27,29-30H,2-7H2,1H3,(H,22,31)(H,23,32)

>  <INCHI_KEY>  (1) 
UUMLTINZBQPNGF-UHFFFAOYSA-N

>  <INTERNATIONAL_BRANDS>  (1) 
oxilan

>  <JCHEM_ACCEPTOR_COUNT>  (1) 
8

>  <JCHEM_ATOM_COUNT>  (1) 
56

>  <JCHEM_AVERAGE_POLARIZABILITY>  (1) 
57.05098868005005

>  <JCHEM_BIOAVAILABILITY>  (1) 
0

>  <JCHEM_DONOR_COUNT>  (1) 
7

>  <JCHEM_FORMAL_CHARGE>  (1) 
0

>  <JCHEM_GHOSE_FILTER>  (1) 
0

>  <JCHEM_IUPAC>  (1) 
N1-(2,3-dihydroxypropyl)-5-[N-(2,3-dihydroxypropyl)acetamido]-N3-(2-hydroxyethyl)-2,4,6-triiodobenzene-1,3-dicarboxamide

>  <JCHEM_LOGP>  (1) 
-1.3204875129999998

>  <JCHEM_MDDR_LIKE_RULE>  (1) 
0

>  <JCHEM_NUMBER_OF_RINGS>  (1) 
1

>  <JCHEM_PHYSIOLOGICAL_CHARGE>  (1) 
0

>  <JCHEM_PKA>  (1) 
12.65958077717681

>  <JCHEM_PKA_STRONGEST_ACIDIC>  (1) 
11.736321602491788

>  <JCHEM_PKA_STRONGEST_BASIC>  (1) 
-1.661769434150305

>  <JCHEM_POLAR_SURFACE_AREA>  (1) 
179.66

>  <JCHEM_REFRACTIVITY>  (1) 
142.87649999999996

>  <JCHEM_ROTATABLE_BOND_COUNT>  (1) 
11

>  <JCHEM_RULE_OF_FIVE>  (1) 
0

>  <JCHEM_TRADITIONAL_IUPAC>  (1) 
ioxilan

>  <JCHEM_VEBER_RULE>  (1) 
0

>  <MOLECULAR_WEIGHT>  (1) 
791.116

>  <PRODUCTS>  (1) 
Oxilan

>  <SMILES>  (1) 
CC(=O)N(CC(O)CO)C1=C(I)C(C(=O)NCC(O)CO)=C(I)C(C(=O)NCCO)=C1I

>  <SYNONYMS>  (1) 
Ioxilane; Ioxilanum; N-(2,3-dihydroxypropyl)-Nâ€™-(2- hydroxyethyl)-5-[N-(2,3-dihydroxypropyl) acetamido]-2,4,6-triiodoisophthal-amide

$$$$
