
     RDKit          2D

 42 42  0  0  1  0  0  0  0  0999 V2000
    4.2868   -2.4750    0.0000 C   0  0  0  0  0  0  0  0  0  0  0  0
    5.7157   -2.4750    0.0000 C   0  0  0  0  0  0  0  0  0  0  0  0
    3.5723    3.7125    0.0000 C   0  0  0  0  0  0  0  0  0  0  0  0
    3.5723    2.8875    0.0000 C   0  0  0  0  0  0  0  0  0  0  0  0
    5.0012   -1.2375    0.0000 C   0  0  0  0  0  0  0  0  0  0  0  0
    5.0012    3.7125    0.0000 C   0  0  0  0  0  0  0  0  0  0  0  0
    6.4302    1.2375    0.0000 C   0  0  0  0  0  0  0  0  0  0  0  0
    5.0012   -2.0625    0.0000 C   0  0  0  0  0  0  0  0  0  0  0  0
    4.2868    4.1250    0.0000 C   0  0  0  0  0  0  0  0  0  0  0  0
    5.0012    2.8875    0.0000 C   0  0  0  0  0  0  0  0  0  0  0  0
    4.2868    2.4750    0.0000 C   0  0  0  0  0  0  0  0  0  0  0  0
    5.7157   -0.8250    0.0000 C   0  0  0  0  0  0  0  0  0  0  0  0
    6.4302    0.4125    0.0000 C   0  0  0  0  0  0  0  0  0  0  0  0
    5.7157    2.4750    0.0000 C   0  0  0  0  0  0  0  0  0  0  0  0
    6.4302   -1.2375    0.0000 B   0  0  0  0  0  0  0  0  0  0  0  0
    4.2868    4.9500    0.0000 Cl  0  0  0  0  0  0  0  0  0  0  0  0
    4.2868    1.6500    0.0000 Cl  0  0  0  0  0  0  0  0  0  0  0  0
    5.7157    1.6500    0.0000 N   0  0  0  0  0  0  0  0  0  0  0  0
    5.7157    0.0000    0.0000 N   0  0  0  0  0  0  0  0  0  0  0  0
    7.1447    0.0000    0.0000 O   0  0  0  0  0  0  0  0  0  0  0  0
    6.4302    2.8875    0.0000 O   0  0  0  0  0  0  0  0  0  0  0  0
    7.1447   -0.8250    0.0000 O   0  0  0  0  0  0  0  0  0  0  0  0
    6.4302   -2.0625    0.0000 O   0  0  0  0  0  0  0  0  0  0  0  0
    0.0000    0.0000    0.0000 H   0  0  0  0  0  0  0  0  0  0  0  0
    0.0000    0.0000    0.0000 H   0  0  0  0  0  0  0  0  0  0  0  0
    0.0000    0.0000    0.0000 H   0  0  0  0  0  0  0  0  0  0  0  0
    0.0000    0.0000    0.0000 H   0  0  0  0  0  0  0  0  0  0  0  0
    0.0000    0.0000    0.0000 H   0  0  0  0  0  0  0  0  0  0  0  0
    0.0000    0.0000    0.0000 H   0  0  0  0  0  0  0  0  0  0  0  0
    0.0000    0.0000    0.0000 H   0  0  0  0  0  0  0  0  0  0  0  0
    0.0000    0.0000    0.0000 H   0  0  0  0  0  0  0  0  0  0  0  0
    0.0000    0.0000    0.0000 H   0  0  0  0  0  0  0  0  0  0  0  0
    0.0000    0.0000    0.0000 H   0  0  0  0  0  0  0  0  0  0  0  0
    0.0000    0.0000    0.0000 H   0  0  0  0  0  0  0  0  0  0  0  0
    0.0000    0.0000    0.0000 H   0  0  0  0  0  0  0  0  0  0  0  0
    0.0000    0.0000    0.0000 H   0  0  0  0  0  0  0  0  0  0  0  0
    0.0000    0.0000    0.0000 H   0  0  0  0  0  0  0  0  0  0  0  0
    0.0000    0.0000    0.0000 H   0  0  0  0  0  0  0  0  0  0  0  0
    0.0000    0.0000    0.0000 H   0  0  0  0  0  0  0  0  0  0  0  0
    0.0000    0.0000    0.0000 H   0  0  0  0  0  0  0  0  0  0  0  0
    0.0000    0.0000    0.0000 H   0  0  0  0  0  0  0  0  0  0  0  0
    0.0000    0.0000    0.0000 H   0  0  0  0  0  0  0  0  0  0  0  0
  4  3  2  0
  8  1  1  0
  8  2  1  0
  8  5  1  0
  9  3  1  0
  9  6  2  0
 10  6  1  0
 11  4  1  0
 11 10  2  0
 12  5  1  6
 13  7  1  0
 14 10  1  0
 12 15  1  0
 16  9  1  0
 17 11  1  0
 18  7  1  0
 18 14  2  3
 19 12  1  0
 19 13  2  3
 13 20  1  0
 21 14  1  0
 22 15  1  0
 23 15  1  0
  1 24  1  0
  1 25  1  0
  1 26  1  0
  2 27  1  0
  2 28  1  0
  2 29  1  0
  3 30  1  0
  4 31  1  0
  5 32  1  0
  5 33  1  0
  6 34  1  0
  7 35  1  0
  7 36  1  0
  8 37  1  0
 12 38  1  0
 20 39  1  0
 21 40  1  0
 22 41  1  0
 23 42  1  0
M  END
>  <ALOGPS_LOGP>  (1) 
2.82

>  <ALOGPS_LOGS>  (1) 
-4.30

>  <ALOGPS_SOLUBILITY>  (1) 
1.79e-02 g/l

>  <DATABASE_ID>  (1) 
DB09570

>  <DATABASE_NAME>  (1) 
drugbank

>  <DRUGBANK_ID>  (1) 
DB09570

>  <DRUG_GROUPS>  (1) 
approved

>  <EXACT_MASS>  (1) 
360.081492

>  <FORMULA>  (1) 
C14H19BCl2N2O4

>  <GENERIC_NAME>  (1) 
Ixazomib

>  <INCHI_IDENTIFIER>  (1) 
InChI=1S/C14H19BCl2N2O4/c1-8(2)5-12(15(22)23)19-13(20)7-18-14(21)10-6-9(16)3-4-11(10)17/h3-4,6,8,12,22-23H,5,7H2,1-2H3,(H,18,21)(H,19,20)/t12-/m0/s1

>  <INCHI_KEY>  (1) 
MXAYKZJJDUDWDS-LBPRGKRZSA-N

>  <JCHEM_ACCEPTOR_COUNT>  (1) 
6

>  <JCHEM_ATOM_COUNT>  (1) 
42

>  <JCHEM_AVERAGE_POLARIZABILITY>  (1) 
36.44581195009026

>  <JCHEM_BIOAVAILABILITY>  (1) 
1

>  <JCHEM_DONOR_COUNT>  (1) 
4

>  <JCHEM_FORMAL_CHARGE>  (1) 
0

>  <JCHEM_GHOSE_FILTER>  (1) 
1

>  <JCHEM_IUPAC>  (1) 
2-{[(2,5-dichlorophenyl)(hydroxy)methylidene]amino}-N-[(1R)-1-(dihydroxyboranyl)-3-methylbutyl]ethanimidic acid

>  <JCHEM_LOGP>  (1) 
4.268989923958496

>  <JCHEM_MDDR_LIKE_RULE>  (1) 
0

>  <JCHEM_NUMBER_OF_RINGS>  (1) 
1

>  <JCHEM_PHYSIOLOGICAL_CHARGE>  (1) 
0

>  <JCHEM_PKA>  (1) 
6.780179829909892

>  <JCHEM_PKA_STRONGEST_ACIDIC>  (1) 
3.470181579910208

>  <JCHEM_PKA_STRONGEST_BASIC>  (1) 
1.6294408141271477

>  <JCHEM_POLAR_SURFACE_AREA>  (1) 
105.64000000000001

>  <JCHEM_REFRACTIVITY>  (1) 
85.5997

>  <JCHEM_ROTATABLE_BOND_COUNT>  (1) 
7

>  <JCHEM_RULE_OF_FIVE>  (1) 
1

>  <JCHEM_TRADITIONAL_IUPAC>  (1) 
2-{[(2,5-dichlorophenyl)(hydroxy)methylidene]amino}-N-[(1R)-1-(dihydroxyboranyl)-3-methylbutyl]ethanimidic acid

>  <JCHEM_VEBER_RULE>  (1) 
0

>  <MOLECULAR_WEIGHT>  (1) 
361.03

>  <PRODUCTS>  (1) 
Ninlaro

>  <SALTS>  (1) 
Ixazomib citrate

>  <SMILES>  (1) 
[H][C@@](CC(C)C)(N=C(O)CN=C(O)C1=C(Cl)C=CC(Cl)=C1)B(O)O

$$$$
