
     RDKit          2D

 48 49  0  0  0  0  0  0  0  0999 V2000
    0.7135    0.7517    0.0000 C   0  0  0  0  0  0  0  0  0  0  0  0
    0.7061   -0.7445    0.0000 C   0  0  0  0  0  0  0  0  0  0  0  0
   -0.0034    1.1600    0.0000 C   0  0  0  0  0  0  0  0  0  0  0  0
    1.4304    1.1600    0.0000 C   0  0  0  0  0  0  0  0  0  0  0  0
   -0.0143   -1.1600    0.0000 C   0  0  0  0  0  0  0  0  0  0  0  0
    1.4194   -1.1600    0.0000 C   0  0  0  0  0  0  0  0  0  0  0  0
   -0.0034    1.9873    0.0000 C   0  0  0  0  0  0  0  0  0  0  0  0
   -0.7167    0.7517    0.0000 C   0  0  0  0  0  0  0  0  0  0  0  0
    1.4304    1.9873    0.0000 C   0  0  0  0  0  0  0  0  0  0  0  0
    2.1438    0.7517    0.0000 C   0  0  0  0  0  0  0  0  0  0  0  0
   -0.0143   -1.9799    0.0000 C   0  0  0  0  0  0  0  0  0  0  0  0
   -0.7203   -0.7445    0.0000 N   0  0  0  0  0  0  0  0  0  0  0  0
    1.4194   -1.9799    0.0000 C   0  0  0  0  0  0  0  0  0  0  0  0
    0.7135    2.3991    0.0000 N   0  0  0  0  0  0  0  0  0  0  0  0
   -0.7167    2.3991    0.0000 C   0  0  0  0  0  0  0  0  0  0  0  0
   -1.4299    1.1600    0.0000 O   0  0  0  0  0  0  0  0  0  0  0  0
   -0.7130   -0.0129    0.0000 O   0  0  0  0  0  0  0  0  0  0  0  0
    2.1438    2.3991    0.0000 C   0  0  0  0  0  0  0  0  0  0  0  0
    2.8533    1.1600    0.0000 O   0  0  0  0  0  0  0  0  0  0  0  0
    2.1438   -0.0753    0.0000 O   0  0  0  0  0  0  0  0  0  0  0  0
    0.7061   -2.3991    0.0000 C   0  0  0  0  0  0  0  0  0  0  0  0
    0.2207   -0.1231    0.0000 O   0  0  0  0  0  0  0  0  0  0  0  0
   -1.8859   -1.5203    0.0000 O   0  0  0  0  0  0  0  0  0  0  0  0
   -2.1433    0.7517    0.0000 C   0  0  0  0  0  0  0  0  0  0  0  0
    3.5667    0.7517    0.0000 C   0  0  0  0  0  0  0  0  0  0  0  0
   -2.8534    1.1654    0.0000 C   0  0  0  0  0  0  0  0  0  0  0  0
   -3.5667    0.7572    0.0000 C   0  0  0  0  0  0  0  0  0  0  0  0
   -2.8502    1.9873    0.0000 O   0  0  0  0  0  0  0  0  0  0  0  0
    0.0000    0.0000    0.0000 H   0  0  0  0  0  0  0  0  0  0  0  0
    0.0000    0.0000    0.0000 H   0  0  0  0  0  0  0  0  0  0  0  0
    0.0000    0.0000    0.0000 H   0  0  0  0  0  0  0  0  0  0  0  0
    0.0000    0.0000    0.0000 H   0  0  0  0  0  0  0  0  0  0  0  0
    0.0000    0.0000    0.0000 H   0  0  0  0  0  0  0  0  0  0  0  0
    0.0000    0.0000    0.0000 H   0  0  0  0  0  0  0  0  0  0  0  0
    0.0000    0.0000    0.0000 H   0  0  0  0  0  0  0  0  0  0  0  0
    0.0000    0.0000    0.0000 H   0  0  0  0  0  0  0  0  0  0  0  0
    0.0000    0.0000    0.0000 H   0  0  0  0  0  0  0  0  0  0  0  0
    0.0000    0.0000    0.0000 H   0  0  0  0  0  0  0  0  0  0  0  0
    0.0000    0.0000    0.0000 H   0  0  0  0  0  0  0  0  0  0  0  0
    0.0000    0.0000    0.0000 H   0  0  0  0  0  0  0  0  0  0  0  0
    0.0000    0.0000    0.0000 H   0  0  0  0  0  0  0  0  0  0  0  0
    0.0000    0.0000    0.0000 H   0  0  0  0  0  0  0  0  0  0  0  0
    0.0000    0.0000    0.0000 H   0  0  0  0  0  0  0  0  0  0  0  0
    0.0000    0.0000    0.0000 H   0  0  0  0  0  0  0  0  0  0  0  0
    0.0000    0.0000    0.0000 H   0  0  0  0  0  0  0  0  0  0  0  0
    0.0000    0.0000    0.0000 H   0  0  0  0  0  0  0  0  0  0  0  0
    0.0000    0.0000    0.0000 H   0  0  0  0  0  0  0  0  0  0  0  0
    0.0000    0.0000    0.0000 H   0  0  0  0  0  0  0  0  0  0  0  0
  1  4  1  0
  2  5  2  0
  2  6  1  0
  3  7  2  0
  3  8  1  0
  4  9  2  0
  4 10  1  0
  5 11  1  0
  5 12  1  0
  6 13  2  0
  7 14  1  0
  7 15  1  0
  8 16  1  0
  8 17  2  0
  9 18  1  0
 10 19  1  0
 10 20  2  0
 11 21  2  0
 12 22  2  0
 12 23  1  0
 16 24  1  0
 19 25  1  0
  9 14  1  0
 13 21  1  0
 24 26  1  0
  1  2  1  0
 26 27  1  0
  1  3  1  0
 26 28  2  0
  1 29  1  0
  6 30  1  0
 11 31  1  0
 13 32  1  0
 14 33  1  0
 15 34  1  0
 15 35  1  0
 15 36  1  0
 18 37  1  0
 18 38  1  0
 18 39  1  0
 21 40  1  0
 24 41  1  0
 24 42  1  0
 25 43  1  0
 25 44  1  0
 25 45  1  0
 27 46  1  0
 27 47  1  0
 27 48  1  0
M  CHG  2  12   1  23  -1
M  END
>  <ALOGPS_LOGP>  (1) 
2.71

>  <ALOGPS_LOGS>  (1) 
-4.54

>  <ALOGPS_SOLUBILITY>  (1) 
1.12e-02 g/l

>  <DATABASE_ID>  (1) 
DB09229

>  <DATABASE_NAME>  (1) 
drugbank

>  <DRUGBANK_ID>  (1) 
DB09229

>  <DRUG_GROUPS>  (1) 
approved

>  <EXACT_MASS>  (1) 
388.127050992

>  <FORMULA>  (1) 
C19H20N2O7

>  <GENERIC_NAME>  (1) 
Aranidipine

>  <INCHI_IDENTIFIER>  (1) 
InChI=1S/C19H20N2O7/c1-10(22)9-28-19(24)16-12(3)20-11(2)15(18(23)27-4)17(16)13-7-5-6-8-14(13)21(25)26/h5-8,17,20H,9H2,1-4H3

>  <INCHI_KEY>  (1) 
NCUCGYYHUFIYNU-UHFFFAOYSA-N

>  <INTERNATIONAL_BRANDS>  (1) 
Sapresta

>  <JCHEM_ACCEPTOR_COUNT>  (1) 
6

>  <JCHEM_ATOM_COUNT>  (1) 
48

>  <JCHEM_AVERAGE_POLARIZABILITY>  (1) 
38.31044166028752

>  <JCHEM_BIOAVAILABILITY>  (1) 
1

>  <JCHEM_DONOR_COUNT>  (1) 
1

>  <JCHEM_FORMAL_CHARGE>  (1) 
0

>  <JCHEM_GHOSE_FILTER>  (1) 
1

>  <JCHEM_IUPAC>  (1) 
3-methyl 5-(2-oxopropyl) 2,6-dimethyl-4-(2-nitrophenyl)-1,4-dihydropyridine-3,5-dicarboxylate

>  <JCHEM_LOGP>  (1) 
1.6231031126666668

>  <JCHEM_MDDR_LIKE_RULE>  (1) 
0

>  <JCHEM_NUMBER_OF_RINGS>  (1) 
2

>  <JCHEM_PHYSIOLOGICAL_CHARGE>  (1) 
0

>  <JCHEM_PKA>  (1) 
19.504269576157807

>  <JCHEM_PKA_STRONGEST_ACIDIC>  (1) 
16.80342575744537

>  <JCHEM_PKA_STRONGEST_BASIC>  (1) 
-6.619107502784545

>  <JCHEM_POLAR_SURFACE_AREA>  (1) 
124.84

>  <JCHEM_REFRACTIVITY>  (1) 
100.7962

>  <JCHEM_ROTATABLE_BOND_COUNT>  (1) 
8

>  <JCHEM_RULE_OF_FIVE>  (1) 
1

>  <JCHEM_TRADITIONAL_IUPAC>  (1) 
aranidipine

>  <JCHEM_VEBER_RULE>  (1) 
0

>  <MOLECULAR_WEIGHT>  (1) 
388.376

>  <SMILES>  (1) 
COC(=O)C1=C(C)NC(C)=C(C1C1=CC=CC=C1[N+]([O-])=O)C(=O)OCC(C)=O

$$$$
