
     RDKit          2D

 74 77  0  0  0  0  0  0  0  0999 V2000
   18.8497   -5.3426    0.0000 N   0  0  0  0  0  0  0  0  0  0  0  0
   18.8497   -6.1676    0.0000 C   0  0  0  0  0  0  0  0  0  0  0  0
   18.1352   -4.9301    0.0000 C   0  0  0  0  0  0  0  0  0  0  0  0
   18.1352   -6.5802    0.0000 N   0  0  0  0  0  0  0  0  0  0  0  0
   17.4207   -5.3426    0.0000 C   0  0  0  0  0  0  0  0  0  0  0  0
   17.4207   -6.1676    0.0000 C   0  0  0  0  0  0  0  0  0  0  0  0
   19.5678   -6.5726    0.0000 N   0  0  0  0  0  0  0  0  0  0  0  0
   16.7062   -6.5802    0.0000 N   0  0  0  0  0  0  0  0  0  0  0  0
   15.9918   -6.1676    0.0000 C   0  0  0  0  0  0  0  0  0  0  0  0
   15.2773   -6.5802    0.0000 C   0  0  0  0  0  0  0  0  0  0  0  0
   15.9918   -5.3426    0.0000 C   0  0  0  0  0  0  0  0  0  0  0  0
   14.5628   -6.1675    0.0000 C   0  0  0  0  0  0  0  0  0  0  0  0
   15.2773   -4.9301    0.0000 C   0  0  0  0  0  0  0  0  0  0  0  0
   14.5629   -5.3426    0.0000 C   0  0  0  0  0  0  0  0  0  0  0  0
   16.7062   -4.9301    0.0000 Cl  0  0  0  0  0  0  0  0  0  0  0  0
   19.5688   -7.3975    0.0000 C   0  0  0  0  0  0  0  0  0  0  0  0
   18.8549   -7.8108    0.0000 C   0  0  0  0  0  0  0  0  0  0  0  0
   20.2838   -7.8093    0.0000 C   0  0  0  0  0  0  0  0  0  0  0  0
   18.8557   -8.6359    0.0000 C   0  0  0  0  0  0  0  0  0  0  0  0
   20.2847   -8.6342    0.0000 C   0  0  0  0  0  0  0  0  0  0  0  0
   19.5707   -9.0477    0.0000 C   0  0  0  0  0  0  0  0  0  0  0  0
   19.5715   -9.8725    0.0000 C   0  0  0  0  0  0  0  0  0  0  0  0
   18.8575  -10.2858    0.0000 C   0  0  0  0  0  0  0  0  0  0  0  0
   20.2867  -10.2843    0.0000 C   0  0  0  0  0  0  0  0  0  0  0  0
   18.8586  -11.1109    0.0000 C   0  0  0  0  0  0  0  0  0  0  0  0
   20.2875  -11.1093    0.0000 C   0  0  0  0  0  0  0  0  0  0  0  0
   19.5735  -11.5226    0.0000 N   0  0  0  0  0  0  0  0  0  0  0  0
   20.9978   -7.3960    0.0000 O   0  0  0  0  0  0  0  0  0  0  0  0
   21.7127   -7.8078    0.0000 C   0  0  0  0  0  0  0  0  0  0  0  0
   18.1417   -9.0492    0.0000 C   0  0  0  0  0  0  0  0  0  0  0  0
   22.4267   -7.3945    0.0000 C   0  0  0  0  0  0  0  0  0  0  0  0
   21.7136   -8.6328    0.0000 C   0  0  0  0  0  0  0  0  0  0  0  0
   15.2773   -7.4052    0.0000 S   0  0  0  0  0  0  0  0  0  0  0  0
   14.5628   -7.8178    0.0000 C   0  0  0  0  0  0  0  0  0  0  0  0
   15.6898   -8.1197    0.0000 O   0  0  0  0  0  0  0  0  0  0  0  0
   16.1023   -7.4052    0.0000 O   0  0  0  0  0  0  0  0  0  0  0  0
   13.8483   -7.4053    0.0000 C   0  0  0  0  0  0  0  0  0  0  0  0
   14.5628   -8.6428    0.0000 C   0  0  0  0  0  0  0  0  0  0  0  0
    0.0000    0.0000    0.0000 H   0  0  0  0  0  0  0  0  0  0  0  0
    0.0000    0.0000    0.0000 H   0  0  0  0  0  0  0  0  0  0  0  0
    0.0000    0.0000    0.0000 H   0  0  0  0  0  0  0  0  0  0  0  0
    0.0000    0.0000    0.0000 H   0  0  0  0  0  0  0  0  0  0  0  0
    0.0000    0.0000    0.0000 H   0  0  0  0  0  0  0  0  0  0  0  0
    0.0000    0.0000    0.0000 H   0  0  0  0  0  0  0  0  0  0  0  0
    0.0000    0.0000    0.0000 H   0  0  0  0  0  0  0  0  0  0  0  0
    0.0000    0.0000    0.0000 H   0  0  0  0  0  0  0  0  0  0  0  0
    0.0000    0.0000    0.0000 H   0  0  0  0  0  0  0  0  0  0  0  0
    0.0000    0.0000    0.0000 H   0  0  0  0  0  0  0  0  0  0  0  0
    0.0000    0.0000    0.0000 H   0  0  0  0  0  0  0  0  0  0  0  0
    0.0000    0.0000    0.0000 H   0  0  0  0  0  0  0  0  0  0  0  0
    0.0000    0.0000    0.0000 H   0  0  0  0  0  0  0  0  0  0  0  0
    0.0000    0.0000    0.0000 H   0  0  0  0  0  0  0  0  0  0  0  0
    0.0000    0.0000    0.0000 H   0  0  0  0  0  0  0  0  0  0  0  0
    0.0000    0.0000    0.0000 H   0  0  0  0  0  0  0  0  0  0  0  0
    0.0000    0.0000    0.0000 H   0  0  0  0  0  0  0  0  0  0  0  0
    0.0000    0.0000    0.0000 H   0  0  0  0  0  0  0  0  0  0  0  0
    0.0000    0.0000    0.0000 H   0  0  0  0  0  0  0  0  0  0  0  0
    0.0000    0.0000    0.0000 H   0  0  0  0  0  0  0  0  0  0  0  0
    0.0000    0.0000    0.0000 H   0  0  0  0  0  0  0  0  0  0  0  0
    0.0000    0.0000    0.0000 H   0  0  0  0  0  0  0  0  0  0  0  0
    0.0000    0.0000    0.0000 H   0  0  0  0  0  0  0  0  0  0  0  0
    0.0000    0.0000    0.0000 H   0  0  0  0  0  0  0  0  0  0  0  0
    0.0000    0.0000    0.0000 H   0  0  0  0  0  0  0  0  0  0  0  0
    0.0000    0.0000    0.0000 H   0  0  0  0  0  0  0  0  0  0  0  0
    0.0000    0.0000    0.0000 H   0  0  0  0  0  0  0  0  0  0  0  0
    0.0000    0.0000    0.0000 H   0  0  0  0  0  0  0  0  0  0  0  0
    0.0000    0.0000    0.0000 H   0  0  0  0  0  0  0  0  0  0  0  0
    0.0000    0.0000    0.0000 H   0  0  0  0  0  0  0  0  0  0  0  0
    0.0000    0.0000    0.0000 H   0  0  0  0  0  0  0  0  0  0  0  0
    0.0000    0.0000    0.0000 H   0  0  0  0  0  0  0  0  0  0  0  0
    0.0000    0.0000    0.0000 H   0  0  0  0  0  0  0  0  0  0  0  0
    0.0000    0.0000    0.0000 H   0  0  0  0  0  0  0  0  0  0  0  0
    0.0000    0.0000    0.0000 H   0  0  0  0  0  0  0  0  0  0  0  0
    0.0000    0.0000    0.0000 H   0  0  0  0  0  0  0  0  0  0  0  0
  2  1  2  0
  3  1  1  0
  4  2  1  0
  5  3  2  0
  6  4  2  0
  6  5  1  0
  2  7  1  0
  6  8  1  0
 10  9  2  0
 11  9  1  0
 12 10  1  0
 13 11  2  0
 14 12  2  0
 14 13  1  0
  8  9  1  0
  5 15  1  0
 17 16  2  0
 18 16  1  0
 19 17  1  0
 20 18  2  0
 21 19  2  0
 21 20  1  0
  7 16  1  0
 23 22  1  0
 24 22  1  0
 25 23  1  0
 26 24  1  0
 27 25  1  0
 27 26  1  0
 21 22  1  0
 18 28  1  0
 28 29  1  0
 19 30  1  0
 29 31  1  0
 29 32  1  0
 10 33  1  0
 33 34  1  0
 33 35  2  0
 33 36  2  0
 34 37  1  0
 34 38  1  0
  3 39  1  0
  7 40  1  0
  8 41  1  0
 11 42  1  0
 12 43  1  0
 13 44  1  0
 14 45  1  0
 17 46  1  0
 20 47  1  0
 22 48  1  0
 23 49  1  0
 23 50  1  0
 24 51  1  0
 24 52  1  0
 25 53  1  0
 25 54  1  0
 26 55  1  0
 26 56  1  0
 27 57  1  0
 29 58  1  0
 30 59  1  0
 30 60  1  0
 30 61  1  0
 31 62  1  0
 31 63  1  0
 31 64  1  0
 32 65  1  0
 32 66  1  0
 32 67  1  0
 34 68  1  0
 37 69  1  0
 37 70  1  0
 37 71  1  0
 38 72  1  0
 38 73  1  0
 38 74  1  0
M  END
>  <ALOGPS_LOGP>  (1) 
5.23

>  <ALOGPS_LOGS>  (1) 
-5.40

>  <ALOGPS_SOLUBILITY>  (1) 
2.22e-03 g/l

>  <DATABASE_ID>  (1) 
DB09063

>  <DATABASE_NAME>  (1) 
drugbank

>  <DRUGBANK_ID>  (1) 
DB09063

>  <DRUG_GROUPS>  (1) 
approved

>  <EXACT_MASS>  (1) 
557.2227389

>  <FORMULA>  (1) 
C28H36ClN5O3S

>  <GENERIC_NAME>  (1) 
Ceritinib

>  <INCHI_IDENTIFIER>  (1) 
InChI=1S/C28H36ClN5O3S/c1-17(2)37-25-15-21(20-10-12-30-13-11-20)19(5)14-24(25)33-28-31-16-22(29)27(34-28)32-23-8-6-7-9-26(23)38(35,36)18(3)4/h6-9,14-18,20,30H,10-13H2,1-5H3,(H2,31,32,33,34)

>  <INCHI_KEY>  (1) 
VERWOWGGCGHDQE-UHFFFAOYSA-N

>  <JCHEM_ACCEPTOR_COUNT>  (1) 
8

>  <JCHEM_ATOM_COUNT>  (1) 
74

>  <JCHEM_AVERAGE_POLARIZABILITY>  (1) 
61.32527700940867

>  <JCHEM_BIOAVAILABILITY>  (1) 
0

>  <JCHEM_DONOR_COUNT>  (1) 
3

>  <JCHEM_FORMAL_CHARGE>  (1) 
0

>  <JCHEM_GHOSE_FILTER>  (1) 
0

>  <JCHEM_IUPAC>  (1) 
5-chloro-N2-[5-methyl-4-(piperidin-4-yl)-2-(propan-2-yloxy)phenyl]-N4-[2-(propane-2-sulfonyl)phenyl]pyrimidine-2,4-diamine

>  <JCHEM_LOGP>  (1) 
5.8052708939835584

>  <JCHEM_MDDR_LIKE_RULE>  (1) 
1

>  <JCHEM_NUMBER_OF_RINGS>  (1) 
4

>  <JCHEM_PHYSIOLOGICAL_CHARGE>  (1) 
1

>  <JCHEM_PKA>  (1) 
13.61834334125873

>  <JCHEM_PKA_STRONGEST_ACIDIC>  (1) 
11.57916953570114

>  <JCHEM_PKA_STRONGEST_BASIC>  (1) 
10.074307542437316

>  <JCHEM_POLAR_SURFACE_AREA>  (1) 
105.24000000000001

>  <JCHEM_REFRACTIVITY>  (1) 
153.8568

>  <JCHEM_ROTATABLE_BOND_COUNT>  (1) 
9

>  <JCHEM_RULE_OF_FIVE>  (1) 
0

>  <JCHEM_TRADITIONAL_IUPAC>  (1) 
5-chloro-N2-[2-isopropoxy-5-methyl-4-(piperidin-4-yl)phenyl]-N4-[2-(propane-2-sulfonyl)phenyl]pyrimidine-2,4-diamine

>  <JCHEM_VEBER_RULE>  (1) 
0

>  <MOLECULAR_WEIGHT>  (1) 
558.14

>  <PRODUCTS>  (1) 
Zykadia

>  <SMILES>  (1) 
CC(C)OC1=C(NC2=NC(NC3=CC=CC=C3S(=O)(=O)C(C)C)=C(Cl)C=N2)C=C(C)C(=C1)C1CCNCC1

>  <SYNONYMS>  (1) 
c√©ritinib; N-{2-[(5-chloro-2-{[2-isopropoxy-5-methyl-4-(piperidin-4-yl)phenyl]amino}pyrimidin-4-yl)amino]phenyl}propane-2-sulfonamide

$$$$
