
     RDKit          2D

 41 42  0  0  0  0  0  0  0  0999 V2000
   -3.2373   -0.2075    0.0000 C   0  0  0  0  0  0  0  0  0  0  0  0
   -3.2373   -1.0325    0.0000 C   0  0  0  0  0  0  0  0  0  0  0  0
   -2.5229   -1.4450    0.0000 C   0  0  0  0  0  0  0  0  0  0  0  0
   -1.8084   -1.0325    0.0000 C   0  0  0  0  0  0  0  0  0  0  0  0
   -1.8084   -0.2075    0.0000 C   0  0  0  0  0  0  0  0  0  0  0  0
   -2.5229    0.2049    0.0000 C   0  0  0  0  0  0  0  0  0  0  0  0
   -1.0791    0.2049    0.0000 C   0  0  0  0  0  0  0  0  0  0  0  0
   -0.3646   -0.2075    0.0000 C   0  0  0  0  0  0  0  0  0  0  0  0
    0.3497    0.2049    0.0000 C   0  0  0  0  0  0  0  0  0  0  0  0
    1.0642   -0.2075    0.0000 C   0  0  0  0  0  0  0  0  0  0  0  0
    1.7787    0.2049    0.0000 N   0  0  0  0  0  0  0  0  0  0  0  0
    2.5053   -0.2147    0.0000 C   0  0  0  0  0  0  0  0  0  0  0  0
    3.2199    0.1976    0.0000 C   0  0  0  0  0  0  0  0  0  0  0  0
    3.2200    1.0226    0.0000 C   0  0  0  0  0  0  0  0  0  0  0  0
    2.4934    1.4423    0.0000 C   0  0  0  0  0  0  0  0  0  0  0  0
    1.7788    1.0299    0.0000 C   0  0  0  0  0  0  0  0  0  0  0  0
   -3.9518   -1.4450    0.0000 F   0  0  0  0  0  0  0  0  0  0  0  0
   -1.0755    1.0297    0.0000 O   0  0  0  0  0  0  0  0  0  0  0  0
    3.9518    1.4450    0.0000 C   0  0  0  0  0  0  0  0  0  0  0  0
    0.0000    0.0000    0.0000 H   0  0  0  0  0  0  0  0  0  0  0  0
    0.0000    0.0000    0.0000 H   0  0  0  0  0  0  0  0  0  0  0  0
    0.0000    0.0000    0.0000 H   0  0  0  0  0  0  0  0  0  0  0  0
    0.0000    0.0000    0.0000 H   0  0  0  0  0  0  0  0  0  0  0  0
    0.0000    0.0000    0.0000 H   0  0  0  0  0  0  0  0  0  0  0  0
    0.0000    0.0000    0.0000 H   0  0  0  0  0  0  0  0  0  0  0  0
    0.0000    0.0000    0.0000 H   0  0  0  0  0  0  0  0  0  0  0  0
    0.0000    0.0000    0.0000 H   0  0  0  0  0  0  0  0  0  0  0  0
    0.0000    0.0000    0.0000 H   0  0  0  0  0  0  0  0  0  0  0  0
    0.0000    0.0000    0.0000 H   0  0  0  0  0  0  0  0  0  0  0  0
    0.0000    0.0000    0.0000 H   0  0  0  0  0  0  0  0  0  0  0  0
    0.0000    0.0000    0.0000 H   0  0  0  0  0  0  0  0  0  0  0  0
    0.0000    0.0000    0.0000 H   0  0  0  0  0  0  0  0  0  0  0  0
    0.0000    0.0000    0.0000 H   0  0  0  0  0  0  0  0  0  0  0  0
    0.0000    0.0000    0.0000 H   0  0  0  0  0  0  0  0  0  0  0  0
    0.0000    0.0000    0.0000 H   0  0  0  0  0  0  0  0  0  0  0  0
    0.0000    0.0000    0.0000 H   0  0  0  0  0  0  0  0  0  0  0  0
    0.0000    0.0000    0.0000 H   0  0  0  0  0  0  0  0  0  0  0  0
    0.0000    0.0000    0.0000 H   0  0  0  0  0  0  0  0  0  0  0  0
    0.0000    0.0000    0.0000 H   0  0  0  0  0  0  0  0  0  0  0  0
    0.0000    0.0000    0.0000 H   0  0  0  0  0  0  0  0  0  0  0  0
    0.0000    0.0000    0.0000 H   0  0  0  0  0  0  0  0  0  0  0  0
  1  2  2  0
  2  3  1  0
  3  4  2  0
  4  5  1  0
  5  6  2  0
  1  6  1  0
  5  7  1  0
  7  8  1  0
  8  9  1  0
  9 10  1  0
 10 11  1  0
 11 12  1  0
 12 13  1  0
 13 14  1  0
 14 15  1  0
 15 16  1  0
 11 16  1  0
  2 17  1  0
  7 18  2  0
 14 19  1  0
  1 20  1  0
  3 21  1  0
  4 22  1  0
  6 23  1  0
  8 24  1  0
  8 25  1  0
  9 26  1  0
  9 27  1  0
 10 28  1  0
 10 29  1  0
 12 30  1  0
 12 31  1  0
 13 32  1  0
 13 33  1  0
 14 34  1  0
 15 35  1  0
 15 36  1  0
 16 37  1  0
 16 38  1  0
 19 39  1  0
 19 40  1  0
 19 41  1  0
M  END
>  <ALOGPS_LOGP>  (1) 
3.89

>  <ALOGPS_LOGS>  (1) 
-3.73

>  <ALOGPS_SOLUBILITY>  (1) 
4.90e-02 g/l

>  <DATABASE_ID>  (1) 
DB09224

>  <DATABASE_NAME>  (1) 
drugbank

>  <DRUGBANK_ID>  (1) 
DB09224

>  <DRUG_GROUPS>  (1) 
approved; investigational

>  <EXACT_MASS>  (1) 
263.168542495

>  <FORMULA>  (1) 
C16H22FNO

>  <GENERIC_NAME>  (1) 
Melperone

>  <INCHI_IDENTIFIER>  (1) 
InChI=1S/C16H22FNO/c1-13-8-11-18(12-9-13)10-2-3-16(19)14-4-6-15(17)7-5-14/h4-7,13H,2-3,8-12H2,1H3

>  <INCHI_KEY>  (1) 
DKMFBWQBDIGMHM-UHFFFAOYSA-N

>  <INTERNATIONAL_BRANDS>  (1) 
Bunil

>  <JCHEM_ACCEPTOR_COUNT>  (1) 
2

>  <JCHEM_ATOM_COUNT>  (1) 
41

>  <JCHEM_AVERAGE_POLARIZABILITY>  (1) 
30.24751636419242

>  <JCHEM_BIOAVAILABILITY>  (1) 
1

>  <JCHEM_DONOR_COUNT>  (1) 
0

>  <JCHEM_FORMAL_CHARGE>  (1) 
0

>  <JCHEM_GHOSE_FILTER>  (1) 
1

>  <JCHEM_IUPAC>  (1) 
1-(4-fluorophenyl)-4-(4-methylpiperidin-1-yl)butan-1-one

>  <JCHEM_LOGP>  (1) 
3.228152928666666

>  <JCHEM_MDDR_LIKE_RULE>  (1) 
0

>  <JCHEM_NUMBER_OF_RINGS>  (1) 
2

>  <JCHEM_PHYSIOLOGICAL_CHARGE>  (1) 
1

>  <JCHEM_PKA_STRONGEST_ACIDIC>  (1) 
16.39657009962249

>  <JCHEM_PKA_STRONGEST_BASIC>  (1) 
8.898162765536014

>  <JCHEM_POLAR_SURFACE_AREA>  (1) 
20.310000000000002

>  <JCHEM_REFRACTIVITY>  (1) 
76.25120000000001

>  <JCHEM_ROTATABLE_BOND_COUNT>  (1) 
5

>  <JCHEM_RULE_OF_FIVE>  (1) 
1

>  <JCHEM_TRADITIONAL_IUPAC>  (1) 
melperone

>  <JCHEM_VEBER_RULE>  (1) 
1

>  <MOLECULAR_WEIGHT>  (1) 
263.356

>  <SMILES>  (1) 
CC1CCN(CCCC(=O)C2=CC=C(F)C=C2)CC1

$$$$
