
     RDKit          2D

  2  1  0  0  0  0  0  0  0  0999 V2000
   -0.4125    0.0000    0.0000 Tl  0  0  0  0  0  1  0  0  0  0  0  0
    0.4125    0.0000    0.0000 Cl  0  0  0  0  0  0  0  0  0  0  0  0
  2  1  1  0
M  RAD  1   1   3
M  END
>  <ALOGPS_LOGP>  (1) 
-0.55

>  <ALOGPS_LOGS>  (1) 
-0.29

>  <ALOGPS_SOLUBILITY>  (1) 
1.23e+02 g/l

>  <DATABASE_ID>  (1) 
DB09316

>  <DATABASE_NAME>  (1) 
drugbank

>  <DRUGBANK_ID>  (1) 
DB09316

>  <DRUG_GROUPS>  (1) 
approved

>  <EXACT_MASS>  (1) 
239.943281

>  <FORMULA>  (1) 
ClTl

>  <GENERIC_NAME>  (1) 
Thallous Chloride

>  <INCHI_IDENTIFIER>  (1) 
InChI=1S/ClH.Tl/h1H;/q;+1/p-1

>  <INCHI_KEY>  (1) 
GBECUEIQVRDUKB-UHFFFAOYSA-M

>  <JCHEM_ACCEPTOR_COUNT>  (1) 
0

>  <JCHEM_ATOM_COUNT>  (1) 
2

>  <JCHEM_AVERAGE_POLARIZABILITY>  (1) 
4.346510788320492

>  <JCHEM_BIOAVAILABILITY>  (1) 
1

>  <JCHEM_DONOR_COUNT>  (1) 
0

>  <JCHEM_FORMAL_CHARGE>  (1) 
0

>  <JCHEM_GHOSE_FILTER>  (1) 
0

>  <JCHEM_IUPAC>  (1) 
chlorothallane

>  <JCHEM_LOGP>  (1) 
0.5345

>  <JCHEM_MDDR_LIKE_RULE>  (1) 
0

>  <JCHEM_NUMBER_OF_RINGS>  (1) 
0

>  <JCHEM_PHYSIOLOGICAL_CHARGE>  (1) 
0

>  <JCHEM_POLAR_SURFACE_AREA>  (1) 
0.0

>  <JCHEM_REFRACTIVITY>  (1) 
6.1363

>  <JCHEM_ROTATABLE_BOND_COUNT>  (1) 
0

>  <JCHEM_RULE_OF_FIVE>  (1) 
1

>  <JCHEM_TRADITIONAL_IUPAC>  (1) 
thallous chloride

>  <JCHEM_VEBER_RULE>  (1) 
1

>  <MOLECULAR_WEIGHT>  (1) 
239.83

>  <PRODUCTS>  (1) 
THALLOUS CHLORIDE Tl 201; Thallous Chloride Tl 201

>  <SMILES>  (1) 
Cl[Tl]

>  <SYNONYMS>  (1) 
Thallium chloride; thallium monochloride; Thallium(I) chloride; Thallous Chloride Tl-201

$$$$
