
     RDKit          2D

 98105  0  0  0  0  0  0  0  0999 V2000
   -0.8044    0.1236    0.0000 C   0  0  0  0  0  0  0  0  0  0  0  0
   -0.1031   -0.1650    0.0000 C   0  0  0  0  0  0  0  0  0  0  0  0
    0.4330    0.4125    0.0000 C   0  0  0  0  0  0  0  0  0  0  0  0
    0.0206    1.1137    0.0000 N   0  0  0  0  0  0  0  0  0  0  0  0
   -0.7219    0.9487    0.0000 C   0  0  0  0  0  0  0  0  0  0  0  0
    1.2581    0.4125    0.0000 C   0  0  0  0  0  0  0  0  0  0  0  0
    1.6707    1.0725    0.0000 N   0  0  0  0  0  0  0  0  0  0  0  0
    1.2581    1.8151    0.0000 O   0  0  0  0  0  0  0  0  0  0  0  0
    0.4330    1.8151    0.0000 C   0  0  0  0  0  0  0  0  0  0  0  0
    1.7119   -0.2475    0.0000 O   0  0  0  0  0  0  0  0  0  0  0  0
    1.2169    3.2176    0.0000 C   0  0  0  0  0  0  0  0  0  0  0  0
    0.3918    3.2176    0.0000 C   0  0  0  0  0  0  0  0  0  0  0  0
   -0.0207    2.5576    0.0000 C   0  0  0  0  0  0  0  0  0  0  0  0
    2.7844    3.2589    0.0000 C   0  0  0  0  0  0  0  0  0  0  0  0
    2.4132    3.9602    0.0000 C   0  0  0  0  0  0  0  0  0  0  0  0
    1.6293    3.9602    0.0000 C   0  0  0  0  0  0  0  0  0  0  0  0
    3.5683    1.6501    0.0000 C   0  0  0  0  0  0  0  0  0  0  0  0
    4.0220    2.4338    0.0000 C   0  0  0  0  0  0  0  0  0  0  0  0
    3.6095    3.2589    0.0000 C   0  0  0  0  0  0  0  0  0  0  0  0
    2.9908    1.0725    0.0000 C   0  0  0  0  0  0  0  0  0  0  0  0
    3.7333    0.8662    0.0000 C   0  0  0  0  0  0  0  0  0  0  0  0
   -1.7532   -1.0725    0.0000 C   0  0  0  0  0  0  0  0  0  0  0  0
   -1.7532   -0.2475    0.0000 O   0  0  0  0  0  0  0  0  0  0  0  0
   -0.8457    2.5164    0.0000 N   0  0  0  0  0  0  0  0  0  0  0  0
   -1.2582    3.2589    0.0000 C   0  0  0  0  0  0  0  0  0  0  0  0
   -2.0420    3.2589    0.0000 C   0  0  0  0  0  0  0  0  0  0  0  0
   -0.8457    3.9602    0.0000 O   0  0  0  0  0  0  0  0  0  0  0  0
   -2.4545    3.9602    0.0000 N   0  0  0  0  0  0  0  0  0  0  0  0
   -3.2796    3.9602    0.0000 C   0  0  0  0  0  0  0  0  0  0  0  0
   -3.6921    3.2589    0.0000 C   0  0  0  0  0  0  0  0  0  0  0  0
   -3.2796    2.5576    0.0000 N   0  0  0  0  0  0  0  0  0  0  0  0
   -2.4545    2.5576    0.0000 C   0  0  0  0  0  0  0  0  0  0  0  0
   -4.5171    3.2589    0.0000 C   0  0  0  0  0  0  0  0  0  0  0  0
   -2.4545   -1.4851    0.0000 N   0  0  0  0  0  0  0  0  0  0  0  0
   -2.4545   -2.3101    0.0000 C   0  0  0  0  0  0  0  0  0  0  0  0
   -1.7532   -2.7226    0.0000 C   0  0  0  0  0  0  0  0  0  0  0  0
   -1.0520   -2.3101    0.0000 C   0  0  0  0  0  0  0  0  0  0  0  0
   -1.0520   -1.4851    0.0000 C   0  0  0  0  0  0  0  0  0  0  0  0
   -0.3094   -2.7226    0.0000 C   0  0  0  0  0  0  0  0  0  0  0  0
    0.3918   -2.3101    0.0000 C   0  0  0  0  0  0  0  0  0  0  0  0
    0.3918   -1.4851    0.0000 C   0  0  0  0  0  0  0  0  0  0  0  0
   -0.3094   -1.0725    0.0000 C   0  0  0  0  0  0  0  0  0  0  0  0
   -3.1970   -2.7226    0.0000 C   0  0  0  0  0  0  0  0  0  0  0  0
   -3.1970   -3.5477    0.0000 C   0  0  0  0  0  0  0  0  0  0  0  0
   -2.4545   -3.9602    0.0000 C   0  0  0  0  0  0  0  0  0  0  0  0
   -1.7532   -3.5477    0.0000 C   0  0  0  0  0  0  0  0  0  0  0  0
    2.9908    0.2475    0.0000 C   0  0  0  0  0  0  0  0  0  0  0  0
    3.6921   -0.1650    0.0000 N   0  0  0  0  0  0  0  0  0  0  0  0
    2.2895   -0.1650    0.0000 O   0  0  0  0  0  0  0  0  0  0  0  0
    3.6921   -0.9900    0.0000 S   0  0  0  0  0  0  0  0  0  0  0  0
    2.8670   -0.9900    0.0000 O   0  0  0  0  0  0  0  0  0  0  0  0
    4.5171   -0.9900    0.0000 O   0  0  0  0  0  0  0  0  0  0  0  0
    3.6921   -1.8151    0.0000 C   0  0  0  0  0  0  0  0  0  0  0  0
    4.1046   -2.5165    0.0000 C   0  0  0  0  0  0  0  0  0  0  0  0
    3.2796   -2.5165    0.0000 C   0  0  0  0  0  0  0  0  0  0  0  0
    0.0000    0.0000    0.0000 H   0  0  0  0  0  0  0  0  0  0  0  0
    0.0000    0.0000    0.0000 H   0  0  0  0  0  0  0  0  0  0  0  0
    0.0000    0.0000    0.0000 H   0  0  0  0  0  0  0  0  0  0  0  0
    0.0000    0.0000    0.0000 H   0  0  0  0  0  0  0  0  0  0  0  0
    0.0000    0.0000    0.0000 H   0  0  0  0  0  0  0  0  0  0  0  0
    0.0000    0.0000    0.0000 H   0  0  0  0  0  0  0  0  0  0  0  0
    0.0000    0.0000    0.0000 H   0  0  0  0  0  0  0  0  0  0  0  0
    0.0000    0.0000    0.0000 H   0  0  0  0  0  0  0  0  0  0  0  0
    0.0000    0.0000    0.0000 H   0  0  0  0  0  0  0  0  0  0  0  0
    0.0000    0.0000    0.0000 H   0  0  0  0  0  0  0  0  0  0  0  0
    0.0000    0.0000    0.0000 H   0  0  0  0  0  0  0  0  0  0  0  0
    0.0000    0.0000    0.0000 H   0  0  0  0  0  0  0  0  0  0  0  0
    0.0000    0.0000    0.0000 H   0  0  0  0  0  0  0  0  0  0  0  0
    0.0000    0.0000    0.0000 H   0  0  0  0  0  0  0  0  0  0  0  0
    0.0000    0.0000    0.0000 H   0  0  0  0  0  0  0  0  0  0  0  0
    0.0000    0.0000    0.0000 H   0  0  0  0  0  0  0  0  0  0  0  0
    0.0000    0.0000    0.0000 H   0  0  0  0  0  0  0  0  0  0  0  0
    0.0000    0.0000    0.0000 H   0  0  0  0  0  0  0  0  0  0  0  0
    0.0000    0.0000    0.0000 H   0  0  0  0  0  0  0  0  0  0  0  0
    0.0000    0.0000    0.0000 H   0  0  0  0  0  0  0  0  0  0  0  0
    0.0000    0.0000    0.0000 H   0  0  0  0  0  0  0  0  0  0  0  0
    0.0000    0.0000    0.0000 H   0  0  0  0  0  0  0  0  0  0  0  0
    0.0000    0.0000    0.0000 H   0  0  0  0  0  0  0  0  0  0  0  0
    0.0000    0.0000    0.0000 H   0  0  0  0  0  0  0  0  0  0  0  0
    0.0000    0.0000    0.0000 H   0  0  0  0  0  0  0  0  0  0  0  0
    0.0000    0.0000    0.0000 H   0  0  0  0  0  0  0  0  0  0  0  0
    0.0000    0.0000    0.0000 H   0  0  0  0  0  0  0  0  0  0  0  0
    0.0000    0.0000    0.0000 H   0  0  0  0  0  0  0  0  0  0  0  0
    0.0000    0.0000    0.0000 H   0  0  0  0  0  0  0  0  0  0  0  0
    0.0000    0.0000    0.0000 H   0  0  0  0  0  0  0  0  0  0  0  0
    0.0000    0.0000    0.0000 H   0  0  0  0  0  0  0  0  0  0  0  0
    0.0000    0.0000    0.0000 H   0  0  0  0  0  0  0  0  0  0  0  0
    0.0000    0.0000    0.0000 H   0  0  0  0  0  0  0  0  0  0  0  0
    0.0000    0.0000    0.0000 H   0  0  0  0  0  0  0  0  0  0  0  0
    0.0000    0.0000    0.0000 H   0  0  0  0  0  0  0  0  0  0  0  0
    0.0000    0.0000    0.0000 H   0  0  0  0  0  0  0  0  0  0  0  0
    0.0000    0.0000    0.0000 H   0  0  0  0  0  0  0  0  0  0  0  0
    0.0000    0.0000    0.0000 H   0  0  0  0  0  0  0  0  0  0  0  0
    0.0000    0.0000    0.0000 H   0  0  0  0  0  0  0  0  0  0  0  0
    0.0000    0.0000    0.0000 H   0  0  0  0  0  0  0  0  0  0  0  0
    0.0000    0.0000    0.0000 H   0  0  0  0  0  0  0  0  0  0  0  0
    0.0000    0.0000    0.0000 H   0  0  0  0  0  0  0  0  0  0  0  0
    0.0000    0.0000    0.0000 H   0  0  0  0  0  0  0  0  0  0  0  0
  1  2  1  0
  2  3  1  0
  3  4  1  0
  4  5  1  0
  1  5  1  0
  6  7  1  0
  8  9  2  0
  4  9  1  0
  6 10  2  0
 11 12  1  0
 12 13  1  0
 13  9  1  0
 14 15  1  0
 11 16  1  0
 18 19  2  0
 14 19  1  0
 17 20  1  0
 20 21  1  0
 21 17  1  0
 20  7  1  0
 18 17  1  0
 22 23  1  0
  1 23  1  6
  3  6  1  0
 16 15  1  0
 13 24  1  1
 24 25  1  0
 25 26  1  0
 25 27  2  0
 26 28  2  0
 28 29  1  0
 29 30  2  0
 30 31  1  0
 31 32  2  0
 26 32  1  0
 30 33  1  0
 22 34  2  0
 34 35  1  0
 35 36  2  0
 36 37  1  0
 37 38  2  0
 22 38  1  0
 37 39  1  0
 39 40  2  0
 40 41  1  0
 41 42  2  0
 38 42  1  0
 35 43  1  0
 43 44  2  0
 44 45  1  0
 45 46  2  0
 36 46  1  0
 20 47  1  6
 47 48  1  0
 47 49  2  0
 48 50  1  0
 50 51  2  0
 50 52  2  0
 50 53  1  0
 54 55  1  0
 55 53  1  0
 53 54  1  0
  1 56  1  0
  2 57  1  0
  2 58  1  0
  3 59  1  1
  5 60  1  0
  5 61  1  0
  7 62  1  0
 11 63  1  0
 11 64  1  0
 12 65  1  0
 12 66  1  0
 13 67  1  0
 14 68  1  0
 14 69  1  0
 15 70  1  0
 15 71  1  0
 16 72  1  0
 16 73  1  0
 17 74  1  6
 18 75  1  0
 19 76  1  0
 21 77  1  0
 21 78  1  0
 24 79  1  0
 29 80  1  0
 32 81  1  0
 33 82  1  0
 33 83  1  0
 33 84  1  0
 39 85  1  0
 40 86  1  0
 41 87  1  0
 42 88  1  0
 43 89  1  0
 44 90  1  0
 45 91  1  0
 46 92  1  0
 48 93  1  0
 53 94  1  0
 54 95  1  0
 54 96  1  0
 55 97  1  0
 55 98  1  0
M  END
>  <ALOGPS_LOGP>  (1) 
3.50

>  <ALOGPS_LOGS>  (1) 
-4.99

>  <ALOGPS_SOLUBILITY>  (1) 
7.78e-03 g/l

>  <DATABASE_ID>  (1) 
DB09297

>  <DATABASE_NAME>  (1) 
drugbank

>  <DRUGBANK_ID>  (1) 
DB09297

>  <DRUG_GROUPS>  (1) 
approved

>  <EXACT_MASS>  (1) 
765.294467927

>  <FORMULA>  (1) 
C40H43N7O7S

>  <GENERIC_NAME>  (1) 
Paritaprevir

>  <INCHI_IDENTIFIER>  (1) 
InChI=1S/C40H43N7O7S/c1-24-21-42-33(22-41-24)35(48)43-32-16-6-4-2-3-5-11-25-20-40(25,39(51)46-55(52,53)27-17-18-27)45-36(49)34-19-26(23-47(34)38(32)50)54-37-30-14-8-7-12-28(30)29-13-9-10-15-31(29)44-37/h5,7-15,21-22,25-27,32,34H,2-4,6,16-20,23H2,1H3,(H,43,48)(H,45,49)(H,46,51)/b11-5-/t25-,26+,32-,34-,40+/m0/s1

>  <INCHI_KEY>  (1) 
UAUIUKWPKRJZJV-MDJGTQRPSA-N

>  <JCHEM_ACCEPTOR_COUNT>  (1) 
10

>  <JCHEM_ATOM_COUNT>  (1) 
98

>  <JCHEM_AVERAGE_POLARIZABILITY>  (1) 
79.70012033248034

>  <JCHEM_BIOAVAILABILITY>  (1) 
1

>  <JCHEM_DONOR_COUNT>  (1) 
3

>  <JCHEM_FORMAL_CHARGE>  (1) 
0

>  <JCHEM_GHOSE_FILTER>  (1) 
0

>  <JCHEM_IUPAC>  (1) 
(1S,4R,6R,7Z,14S,18R)-N-(cyclopropanesulfonyl)-14-(5-methylpyrazine-2-amido)-2,15-dioxo-18-(phenanthridin-6-yloxy)-3,16-diazatricyclo[14.3.0.0⁴,⁶]nonadec-7-ene-4-carboxamide

>  <JCHEM_LOGP>  (1) 
2.4907607855284244

>  <JCHEM_MDDR_LIKE_RULE>  (1) 
1

>  <JCHEM_NUMBER_OF_RINGS>  (1) 
8

>  <JCHEM_PHYSIOLOGICAL_CHARGE>  (1) 
-1

>  <JCHEM_PKA>  (1) 
10.532572095582283

>  <JCHEM_PKA_STRONGEST_ACIDIC>  (1) 
3.8028302785945898

>  <JCHEM_PKA_STRONGEST_BASIC>  (1) 
2.639873270879208

>  <JCHEM_POLAR_SURFACE_AREA>  (1) 
189.64999999999998

>  <JCHEM_REFRACTIVITY>  (1) 
200.98299999999995

>  <JCHEM_ROTATABLE_BOND_COUNT>  (1) 
6

>  <JCHEM_RULE_OF_FIVE>  (1) 
0

>  <JCHEM_TRADITIONAL_IUPAC>  (1) 
(1S,4R,6R,7Z,14S,18R)-N-(cyclopropanesulfonyl)-14-(5-methylpyrazine-2-amido)-2,15-dioxo-18-(phenanthridin-6-yloxy)-3,16-diazatricyclo[14.3.0.0⁴,⁶]nonadec-7-ene-4-carboxamide

>  <JCHEM_VEBER_RULE>  (1) 
0

>  <MOLECULAR_WEIGHT>  (1) 
765.89

>  <PRODUCTS>  (1) 
Holkira Pak; Technivie; Viekira Pak; Viekira XR

>  <SMILES>  (1) 
[H][C@]12C[C@]1(NC(=O)[C@]1([H])C[C@H](CN1C(=O)[C@H](CCCCC\C=C/2)NC(=O)C1=NC=C(C)N=C1)OC1=NC2=CC=CC=C2C2=CC=CC=C12)C(=O)NS(=O)(=O)C1CC1

>  <SYNONYMS>  (1) 
(2R,6S,12Z,13aR,14aR,16aS)-N-(cyclopropanesulfonyl)-6-[(5-methylpyrazine-2-carbonyl)amino]-5,16-dioxo-2-[(phenanthridin-6-yl)oxy]-1,2,3,6,7,8,9,10,11,13a,14,15,16,16a-tetradecahydrocyclopropa[e]pyrrolo[1,2-a][1,4]diazacyclopentadecine-14a(5H)-carboxamide; Veruprevir

$$$$
