
     RDKit          2D

 49 53  0  0  1  0  0  0  0  0999 V2000
   -0.7144    2.0625    0.0000 C   0  0  0  0  0  0  0  0  0  0  0  0
    0.0000    2.4750    0.0000 C   0  0  0  0  0  0  0  0  0  0  0  0
    3.5723    2.0625    0.0000 C   0  0  0  0  0  0  0  0  0  0  0  0
    2.8578    2.4750    0.0000 C   0  0  0  0  0  0  0  0  0  0  0  0
    3.5723    1.2375    0.0000 C   0  0  0  0  0  0  0  0  0  0  0  0
   -0.7144   -1.2375    0.0000 C   0  0  0  0  0  0  0  0  0  0  0  0
    2.1434    2.0625    0.0000 C   0  0  0  0  0  0  0  0  0  0  0  0
    2.8578    0.8250    0.0000 C   0  0  0  0  0  0  0  0  0  0  0  0
    0.0000   -1.6500    0.0000 C   0  0  0  0  0  0  0  0  0  0  0  0
   -0.7144   -0.4125    0.0000 C   0  0  0  0  0  0  0  0  0  0  0  0
   -0.5550    4.1250    0.0000 C   0  0  0  0  0  0  0  0  0  0  0  0
    2.1434    4.5375    0.0000 C   0  0  0  0  0  0  0  0  0  0  0  0
    2.1434    1.2375    0.0000 C   0  0  0  0  0  0  0  0  0  0  0  0
    0.7144   -1.2375    0.0000 C   0  0  0  0  0  0  0  0  0  0  0  0
    0.7144    2.0625    0.0000 C   0  0  0  0  0  0  0  0  0  0  0  0
    0.0000    0.0000    0.0000 C   0  0  0  0  0  0  0  0  0  0  0  0
    0.7144   -0.4125    0.0000 C   0  0  0  0  0  0  0  0  0  0  0  0
    0.7144    3.7125    0.0000 C   0  0  0  0  0  0  0  0  0  0  0  0
    0.7144    4.5375    0.0000 C   0  0  0  0  0  0  0  0  0  0  0  0
    1.4289    3.3000    0.0000 C   0  0  0  0  0  0  0  0  0  0  0  0
    0.7144    1.2375    0.0000 C   0  0  0  0  0  0  0  0  0  0  0  0
    1.4289    0.0000    0.0000 C   0  0  0  0  0  0  0  0  0  0  0  0
    1.4289   -1.6500    0.0000 F   0  0  0  0  0  0  0  0  0  0  0  0
   -0.0701    3.4575    0.0000 N   0  0  0  0  0  0  0  0  0  0  0  0
   -0.0701    4.7924    0.0000 N   0  0  0  0  0  0  0  0  0  0  0  0
    1.4289    4.9500    0.0000 N   0  0  0  0  0  0  0  0  0  0  0  0
    2.1434    3.7125    0.0000 N   0  0  0  0  0  0  0  0  0  0  0  0
    1.4289    2.4750    0.0000 N   0  0  0  0  0  0  0  0  0  0  0  0
    0.0000    0.8250    0.0000 N   0  0  0  0  0  0  0  0  0  0  0  0
    1.4289    0.8250    0.0000 N   0  0  0  0  0  0  0  0  0  0  0  0
    2.1434   -0.4125    0.0000 O   0  0  0  0  0  0  0  0  0  0  0  0
    0.0000    0.0000    0.0000 H   0  0  0  0  0  0  0  0  0  0  0  0
    0.0000    0.0000    0.0000 H   0  0  0  0  0  0  0  0  0  0  0  0
    0.0000    0.0000    0.0000 H   0  0  0  0  0  0  0  0  0  0  0  0
    0.0000    0.0000    0.0000 H   0  0  0  0  0  0  0  0  0  0  0  0
    0.0000    0.0000    0.0000 H   0  0  0  0  0  0  0  0  0  0  0  0
    0.0000    0.0000    0.0000 H   0  0  0  0  0  0  0  0  0  0  0  0
    0.0000    0.0000    0.0000 H   0  0  0  0  0  0  0  0  0  0  0  0
    0.0000    0.0000    0.0000 H   0  0  0  0  0  0  0  0  0  0  0  0
    0.0000    0.0000    0.0000 H   0  0  0  0  0  0  0  0  0  0  0  0
    0.0000    0.0000    0.0000 H   0  0  0  0  0  0  0  0  0  0  0  0
    0.0000    0.0000    0.0000 H   0  0  0  0  0  0  0  0  0  0  0  0
    0.0000    0.0000    0.0000 H   0  0  0  0  0  0  0  0  0  0  0  0
    0.0000    0.0000    0.0000 H   0  0  0  0  0  0  0  0  0  0  0  0
    0.0000    0.0000    0.0000 H   0  0  0  0  0  0  0  0  0  0  0  0
    0.0000    0.0000    0.0000 H   0  0  0  0  0  0  0  0  0  0  0  0
    0.0000    0.0000    0.0000 H   0  0  0  0  0  0  0  0  0  0  0  0
    0.0000    0.0000    0.0000 H   0  0  0  0  0  0  0  0  0  0  0  0
    0.0000    0.0000    0.0000 H   0  0  0  0  0  0  0  0  0  0  0  0
  2  1  1  0
  4  3  2  0
  5  3  1  0
  7  4  1  0
  8  5  2  0
  9  6  2  0
 10  6  1  0
 13  7  2  0
 13  8  1  0
 14  9  1  0
 15  2  1  6
 16 10  2  0
 17 14  2  0
 17 16  1  0
 19 18  2  0
 20 18  1  0
 21 15  1  0
 22 17  1  0
 24 11  2  0
 24 18  1  0
 25 11  1  0
 25 19  1  0
 26 12  2  0
 26 19  1  0
 27 12  1  0
 27 20  2  0
 15 28  1  0
 28 20  1  0
 29 16  1  0
 29 21  2  0
 30 13  1  0
 30 21  1  0
 30 22  1  0
 31 22  2  0
 23 14  1  0
  1 32  1  0
  1 33  1  0
  1 34  1  0
  2 35  1  0
  2 36  1  0
  3 37  1  0
  4 38  1  0
  5 39  1  0
  6 40  1  0
  7 41  1  0
  8 42  1  0
  9 43  1  0
 10 44  1  0
 11 45  1  0
 12 46  1  0
 15 47  1  0
 25 48  1  0
 28 49  1  0
M  END
>  <ALOGPS_LOGP>  (1) 
3.03

>  <ALOGPS_LOGS>  (1) 
-4.21

>  <ALOGPS_SOLUBILITY>  (1) 
2.55e-02 g/l

>  <DATABASE_ID>  (1) 
DB09054

>  <DATABASE_NAME>  (1) 
drugbank

>  <DRUGBANK_ID>  (1) 
DB09054

>  <DRUG_GROUPS>  (1) 
approved

>  <EXACT_MASS>  (1) 
415.155686391

>  <FORMULA>  (1) 
C22H18FN7O

>  <GENERIC_NAME>  (1) 
Idelalisib

>  <INCHI_IDENTIFIER>  (1) 
InChI=1S/C22H18FN7O/c1-2-15(28-20-18-19(25-11-24-18)26-12-27-20)21-29-16-10-6-9-14(23)17(16)22(31)30(21)13-7-4-3-5-8-13/h3-12,15H,2H2,1H3,(H2,24,25,26,27,28)/t15-/m0/s1

>  <INCHI_KEY>  (1) 
IFSDAJWBUCMOAH-HNNXBMFYSA-N

>  <JCHEM_ACCEPTOR_COUNT>  (1) 
6

>  <JCHEM_ATOM_COUNT>  (1) 
49

>  <JCHEM_AVERAGE_POLARIZABILITY>  (1) 
41.40914236889856

>  <JCHEM_BIOAVAILABILITY>  (1) 
1

>  <JCHEM_DONOR_COUNT>  (1) 
2

>  <JCHEM_FORMAL_CHARGE>  (1) 
0

>  <JCHEM_GHOSE_FILTER>  (1) 
1

>  <JCHEM_IUPAC>  (1) 
5-fluoro-3-phenyl-2-[(1S)-1-[(9H-purin-6-yl)amino]propyl]-3,4-dihydroquinazolin-4-one

>  <JCHEM_LOGP>  (1) 
3.361083963333334

>  <JCHEM_MDDR_LIKE_RULE>  (1) 
0

>  <JCHEM_NUMBER_OF_RINGS>  (1) 
5

>  <JCHEM_PHYSIOLOGICAL_CHARGE>  (1) 
0

>  <JCHEM_PKA>  (1) 
15.101183263453347

>  <JCHEM_PKA_STRONGEST_ACIDIC>  (1) 
9.86163038495056

>  <JCHEM_PKA_STRONGEST_BASIC>  (1) 
4.271706485445055

>  <JCHEM_POLAR_SURFACE_AREA>  (1) 
99.16

>  <JCHEM_REFRACTIVITY>  (1) 
116.8321

>  <JCHEM_ROTATABLE_BOND_COUNT>  (1) 
5

>  <JCHEM_RULE_OF_FIVE>  (1) 
1

>  <JCHEM_TRADITIONAL_IUPAC>  (1) 
5-fluoro-3-phenyl-2-[(1S)-1-(9H-purin-6-ylamino)propyl]quinazolin-4-one

>  <JCHEM_VEBER_RULE>  (1) 
0

>  <MOLECULAR_WEIGHT>  (1) 
415.432

>  <PRODUCTS>  (1) 
Zydelig

>  <SMILES>  (1) 
[H][C@@](CC)(NC1=NC=NC2=C1N=CN2)C1=NC2=CC=CC(F)=C2C(=O)N1C1=CC=CC=C1

>  <SYNONYMS>  (1) 
5-Fluoro-3-phenyl-2-((S)-1-(9H-purin-6-ylamino)-propyl)-3H-quinazolin-4-one; 5-fluoro-3-phenyl-2-[(1S)-1-(3H-purin-6-ylamino)propyl]quinazolin-4(3H)-one

$$$$
