
     RDKit          2D

 61 64  0  0  0  0  0  0  0  0999 V2000
    1.0973    0.1656    0.0000 C   0  0  0  0  0  0  0  0  0  0  0  0
    1.0973    0.9938    0.0000 C   0  0  0  0  0  0  0  0  0  0  0  0
    1.8012    1.4079    0.0000 C   0  0  0  0  0  0  0  0  0  0  0  0
    2.5051    0.9938    0.0000 C   0  0  0  0  0  0  0  0  0  0  0  0
    2.5051    0.1656    0.0000 C   0  0  0  0  0  0  0  0  0  0  0  0
    1.8012   -0.2484    0.0000 C   0  0  0  0  0  0  0  0  0  0  0  0
    1.8012   -1.0765    0.0000 C   0  0  0  0  0  0  0  0  0  0  0  0
    1.8012   -1.9047    0.0000 F   0  0  0  0  0  0  0  0  0  0  0  0
    0.9730   -1.0765    0.0000 F   0  0  0  0  0  0  0  0  0  0  0  0
    2.5879   -1.0765    0.0000 F   0  0  0  0  0  0  0  0  0  0  0  0
    3.2504    1.4079    0.0000 C   0  0  0  0  0  0  0  0  0  0  0  0
    3.9543    1.8219    0.0000 F   0  0  0  0  0  0  0  0  0  0  0  0
    2.8363    2.1118    0.0000 F   0  0  0  0  0  0  0  0  0  0  0  0
    3.6644    0.6625    0.0000 F   0  0  0  0  0  0  0  0  0  0  0  0
    0.3519    1.4079    0.0000 C   0  0  0  0  0  0  0  0  0  0  0  0
   -0.3519    0.9938    0.0000 O   0  0  0  0  0  0  0  0  0  0  0  0
   -1.0558    1.4079    0.0000 C   0  0  0  0  0  0  0  0  0  0  0  0
   -1.8012    0.9938    0.0000 C   0  0  0  0  0  0  0  0  0  0  0  0
   -2.5051    1.4079    0.0000 C   0  0  0  0  0  0  0  0  0  0  0  0
   -1.0558    0.5383    0.0000 N   0  0  0  0  0  0  0  0  0  0  0  0
   -1.0558   -0.2898    0.0000 C   0  0  0  0  0  0  0  0  0  0  0  0
   -1.7597   -0.7039    0.0000 C   0  0  0  0  0  0  0  0  0  0  0  0
   -2.5051   -0.2484    0.0000 C   0  0  0  0  0  0  0  0  0  0  0  0
   -2.5051    0.5797    0.0000 C   0  0  0  0  0  0  0  0  0  0  0  0
   -1.0973   -1.1593    0.0000 C   0  0  0  0  0  0  0  0  0  0  0  0
   -1.3457   -1.9460    0.0000 C   0  0  0  0  0  0  0  0  0  0  0  0
   -2.1738   -1.9460    0.0000 C   0  0  0  0  0  0  0  0  0  0  0  0
   -2.4637   -1.1593    0.0000 N   0  0  0  0  0  0  0  0  0  0  0  0
   -2.6707   -2.6086    0.0000 O   0  0  0  0  0  0  0  0  0  0  0  0
   -3.2504    0.9523    0.0000 C   0  0  0  0  0  0  0  0  0  0  0  0
   -3.9543    1.3664    0.0000 C   0  0  0  0  0  0  0  0  0  0  0  0
   -3.9543    2.1946    0.0000 C   0  0  0  0  0  0  0  0  0  0  0  0
   -3.2089    2.6086    0.0000 C   0  0  0  0  0  0  0  0  0  0  0  0
   -2.5051    2.1946    0.0000 C   0  0  0  0  0  0  0  0  0  0  0  0
    0.3519    2.1946    0.0000 C   0  0  0  0  0  0  0  0  0  0  0  0
    0.0000    0.0000    0.0000 H   0  0  0  0  0  0  0  0  0  0  0  0
    0.0000    0.0000    0.0000 H   0  0  0  0  0  0  0  0  0  0  0  0
    0.0000    0.0000    0.0000 H   0  0  0  0  0  0  0  0  0  0  0  0
    0.0000    0.0000    0.0000 H   0  0  0  0  0  0  0  0  0  0  0  0
    0.0000    0.0000    0.0000 H   0  0  0  0  0  0  0  0  0  0  0  0
    0.0000    0.0000    0.0000 H   0  0  0  0  0  0  0  0  0  0  0  0
    0.0000    0.0000    0.0000 H   0  0  0  0  0  0  0  0  0  0  0  0
    0.0000    0.0000    0.0000 H   0  0  0  0  0  0  0  0  0  0  0  0
    0.0000    0.0000    0.0000 H   0  0  0  0  0  0  0  0  0  0  0  0
    0.0000    0.0000    0.0000 H   0  0  0  0  0  0  0  0  0  0  0  0
    0.0000    0.0000    0.0000 H   0  0  0  0  0  0  0  0  0  0  0  0
    0.0000    0.0000    0.0000 H   0  0  0  0  0  0  0  0  0  0  0  0
    0.0000    0.0000    0.0000 H   0  0  0  0  0  0  0  0  0  0  0  0
    0.0000    0.0000    0.0000 H   0  0  0  0  0  0  0  0  0  0  0  0
    0.0000    0.0000    0.0000 H   0  0  0  0  0  0  0  0  0  0  0  0
    0.0000    0.0000    0.0000 H   0  0  0  0  0  0  0  0  0  0  0  0
    0.0000    0.0000    0.0000 H   0  0  0  0  0  0  0  0  0  0  0  0
    0.0000    0.0000    0.0000 H   0  0  0  0  0  0  0  0  0  0  0  0
    0.0000    0.0000    0.0000 H   0  0  0  0  0  0  0  0  0  0  0  0
    0.0000    0.0000    0.0000 H   0  0  0  0  0  0  0  0  0  0  0  0
    0.0000    0.0000    0.0000 H   0  0  0  0  0  0  0  0  0  0  0  0
    0.0000    0.0000    0.0000 H   0  0  0  0  0  0  0  0  0  0  0  0
    0.0000    0.0000    0.0000 H   0  0  0  0  0  0  0  0  0  0  0  0
    0.0000    0.0000    0.0000 H   0  0  0  0  0  0  0  0  0  0  0  0
    0.0000    0.0000    0.0000 H   0  0  0  0  0  0  0  0  0  0  0  0
    0.0000    0.0000    0.0000 H   0  0  0  0  0  0  0  0  0  0  0  0
  1  2  2  0
  2  3  1  0
  3  4  2  0
  4  5  1  0
  5  6  2  0
  1  6  1  0
  6  7  1  0
  7  8  1  0
  7  9  1  0
  7 10  1  0
  4 11  1  0
 11 12  1  0
 11 13  1  0
 11 14  1  0
 15  2  1  6
 15 16  1  0
 16 17  1  0
 18 17  1  6
 18 19  1  0
 18 20  1  0
 20 21  1  0
 22 21  1  6
 22 23  1  0
 23 24  1  0
 18 24  1  0
 22 25  1  0
 25 26  1  0
 26 27  1  0
 27 28  1  0
 22 28  1  0
 27 29  2  0
 19 30  2  0
 30 31  1  0
 31 32  2  0
 32 33  1  0
 33 34  2  0
 19 34  1  0
 15 35  1  0
  1 36  1  0
  3 37  1  0
  5 38  1  0
 15 39  1  0
 17 40  1  0
 17 41  1  0
 20 42  1  0
 21 43  1  0
 21 44  1  0
 23 45  1  0
 23 46  1  0
 24 47  1  0
 24 48  1  0
 25 49  1  0
 25 50  1  0
 26 51  1  0
 26 52  1  0
 28 53  1  0
 30 54  1  0
 31 55  1  0
 32 56  1  0
 33 57  1  0
 34 58  1  0
 35 59  1  0
 35 60  1  0
 35 61  1  0
M  END
>  <ALOGPS_LOGP>  (1) 
4.07

>  <ALOGPS_LOGS>  (1) 
-5.48

>  <ALOGPS_SOLUBILITY>  (1) 
1.66e-03 g/l

>  <DATABASE_ID>  (1) 
DB09291

>  <DATABASE_NAME>  (1) 
drugbank

>  <DRUGBANK_ID>  (1) 
DB09291

>  <DRUG_GROUPS>  (1) 
approved

>  <EXACT_MASS>  (1) 
500.189847063

>  <FORMULA>  (1) 
C25H26F6N2O2

>  <GENERIC_NAME>  (1) 
Rolapitant

>  <INCHI_IDENTIFIER>  (1) 
InChI=1S/C25H26F6N2O2/c1-16(17-11-19(24(26,27)28)13-20(12-17)25(29,30)31)35-15-23(18-5-3-2-4-6-18)10-9-22(14-32-23)8-7-21(34)33-22/h2-6,11-13,16,32H,7-10,14-15H2,1H3,(H,33,34)/t16-,22-,23-/m1/s1

>  <INCHI_KEY>  (1) 
FIVSJYGQAIEMOC-ZGNKEGEESA-N

>  <INTERNATIONAL_BRANDS>  (1) 
Varubi

>  <JCHEM_ACCEPTOR_COUNT>  (1) 
3

>  <JCHEM_ATOM_COUNT>  (1) 
61

>  <JCHEM_AVERAGE_POLARIZABILITY>  (1) 
46.20267590809522

>  <JCHEM_BIOAVAILABILITY>  (1) 
0

>  <JCHEM_DONOR_COUNT>  (1) 
2

>  <JCHEM_FORMAL_CHARGE>  (1) 
0

>  <JCHEM_GHOSE_FILTER>  (1) 
0

>  <JCHEM_IUPAC>  (1) 
(5S,8S)-8-{[(1R)-1-[3,5-bis(trifluoromethyl)phenyl]ethoxy]methyl}-8-phenyl-1,7-diazaspiro[4.5]decan-2-one

>  <JCHEM_LOGP>  (1) 
5.003099035000001

>  <JCHEM_MDDR_LIKE_RULE>  (1) 
1

>  <JCHEM_NUMBER_OF_RINGS>  (1) 
4

>  <JCHEM_PHYSIOLOGICAL_CHARGE>  (1) 
1

>  <JCHEM_PKA_STRONGEST_ACIDIC>  (1) 
14.14964572763601

>  <JCHEM_PKA_STRONGEST_BASIC>  (1) 
8.300259143246533

>  <JCHEM_POLAR_SURFACE_AREA>  (1) 
50.36

>  <JCHEM_REFRACTIVITY>  (1) 
118.27779999999998

>  <JCHEM_ROTATABLE_BOND_COUNT>  (1) 
7

>  <JCHEM_RULE_OF_FIVE>  (1) 
0

>  <JCHEM_TRADITIONAL_IUPAC>  (1) 
rolapitant

>  <JCHEM_VEBER_RULE>  (1) 
0

>  <MOLECULAR_WEIGHT>  (1) 
500.485

>  <PRODUCTS>  (1) 
Varubi

>  <SALTS>  (1) 
Rolapitant hydrochloride; Rolapitant hydrochloride monohydrate

>  <SMILES>  (1) 
C[C@@H](OC[C@]1(CC[C@]2(CCC(=O)N2)CN1)C1=CC=CC=C1)C1=CC(=CC(=C1)C(F)(F)F)C(F)(F)F

$$$$
