
     RDKit          2D

 59 64  0  0  0  0  0  0  0  0999 V2000
    2.0466   -1.2228    0.0000 C   0  0  0  0  0  0  0  0  0  0  0  0
    4.3868    1.0276    0.0000 C   0  0  0  0  0  0  0  0  0  0  0  0
    0.8799    1.1165    0.0000 C   0  0  0  0  0  0  0  0  0  0  0  0
    0.5769    1.8564    0.0000 C   0  0  0  0  0  0  0  0  0  0  0  0
    4.6979    1.7920    0.0000 C   0  0  0  0  0  0  0  0  0  0  0  0
    1.3281    0.8602    0.0000 C   0  0  0  0  0  0  0  0  0  0  0  0
    1.1841   -0.0271    0.0000 C   0  0  0  0  0  0  0  0  0  0  0  0
    4.1246    6.0423    0.0000 C   0  0  0  0  0  0  0  0  0  0  0  0
    2.9907    5.1736    0.0000 C   0  0  0  0  0  0  0  0  0  0  0  0
    4.3099    4.6260    0.0000 C   0  0  0  0  0  0  0  0  0  0  0  0
    3.6231    6.6969    0.0000 C   0  0  0  0  0  0  0  0  0  0  0  0
    2.4892    5.8284    0.0000 C   0  0  0  0  0  0  0  0  0  0  0  0
    3.9937    3.8644    0.0000 C   0  0  0  0  0  0  0  0  0  0  0  0
    3.2627    0.1912    0.0000 C   0  0  0  0  0  0  0  0  0  0  0  0
    3.5617    0.9405    0.0000 C   0  0  0  0  0  0  0  0  0  0  0  0
    1.8504    0.9670    0.0000 C   0  0  0  0  0  0  0  0  0  0  0  0
    2.4480    0.1773    0.0000 C   0  0  0  0  0  0  0  0  0  0  0  0
    1.1358    2.4576    0.0000 C   0  0  0  0  0  0  0  0  0  0  0  0
    4.1790    2.4480    0.0000 C   0  0  0  0  0  0  0  0  0  0  0  0
    3.0422    1.5867    0.0000 C   0  0  0  0  0  0  0  0  0  0  0  0
    3.3321    2.3506    0.0000 C   0  0  0  0  0  0  0  0  0  0  0  0
    1.9574    2.2939    0.0000 C   0  0  0  0  0  0  0  0  0  0  0  0
    2.1644    1.4542    0.0000 C   0  0  0  0  0  0  0  0  0  0  0  0
    1.9072   -0.4099    0.0000 N   0  0  0  0  0  0  0  0  0  0  0  0
    3.8084    5.2807    0.0000 N   0  0  0  0  0  0  0  0  0  0  0  0
    0.8822    3.2423    0.0000 O   0  0  0  0  0  0  0  0  0  0  0  0
    2.8054    6.5900    0.0000 O   0  0  0  0  0  0  0  0  0  0  0  0
    4.4952    3.2097    0.0000 O   0  0  0  0  0  0  0  0  0  0  0  0
    2.6210    2.7949    0.0000 O   0  0  0  0  0  0  0  0  0  0  0  0
    0.0000    0.0000    0.0000 H   0  0  0  0  0  0  0  0  0  0  0  0
    0.0000    0.0000    0.0000 H   0  0  0  0  0  0  0  0  0  0  0  0
    0.0000    0.0000    0.0000 H   0  0  0  0  0  0  0  0  0  0  0  0
    0.0000    0.0000    0.0000 H   0  0  0  0  0  0  0  0  0  0  0  0
    0.0000    0.0000    0.0000 H   0  0  0  0  0  0  0  0  0  0  0  0
    0.0000    0.0000    0.0000 H   0  0  0  0  0  0  0  0  0  0  0  0
    0.0000    0.0000    0.0000 H   0  0  0  0  0  0  0  0  0  0  0  0
    0.0000    0.0000    0.0000 H   0  0  0  0  0  0  0  0  0  0  0  0
    0.0000    0.0000    0.0000 H   0  0  0  0  0  0  0  0  0  0  0  0
    0.0000    0.0000    0.0000 H   0  0  0  0  0  0  0  0  0  0  0  0
    0.0000    0.0000    0.0000 H   0  0  0  0  0  0  0  0  0  0  0  0
    0.0000    0.0000    0.0000 H   0  0  0  0  0  0  0  0  0  0  0  0
    0.0000    0.0000    0.0000 H   0  0  0  0  0  0  0  0  0  0  0  0
    0.0000    0.0000    0.0000 H   0  0  0  0  0  0  0  0  0  0  0  0
    0.0000    0.0000    0.0000 H   0  0  0  0  0  0  0  0  0  0  0  0
    0.0000    0.0000    0.0000 H   0  0  0  0  0  0  0  0  0  0  0  0
    0.0000    0.0000    0.0000 H   0  0  0  0  0  0  0  0  0  0  0  0
    0.0000    0.0000    0.0000 H   0  0  0  0  0  0  0  0  0  0  0  0
    0.0000    0.0000    0.0000 H   0  0  0  0  0  0  0  0  0  0  0  0
    0.0000    0.0000    0.0000 H   0  0  0  0  0  0  0  0  0  0  0  0
    0.0000    0.0000    0.0000 H   0  0  0  0  0  0  0  0  0  0  0  0
    0.0000    0.0000    0.0000 H   0  0  0  0  0  0  0  0  0  0  0  0
    0.0000    0.0000    0.0000 H   0  0  0  0  0  0  0  0  0  0  0  0
    0.0000    0.0000    0.0000 H   0  0  0  0  0  0  0  0  0  0  0  0
    0.0000    0.0000    0.0000 H   0  0  0  0  0  0  0  0  0  0  0  0
    0.0000    0.0000    0.0000 H   0  0  0  0  0  0  0  0  0  0  0  0
    0.0000    0.0000    0.0000 H   0  0  0  0  0  0  0  0  0  0  0  0
    0.0000    0.0000    0.0000 H   0  0  0  0  0  0  0  0  0  0  0  0
    0.0000    0.0000    0.0000 H   0  0  0  0  0  0  0  0  0  0  0  0
    0.0000    0.0000    0.0000 H   0  0  0  0  0  0  0  0  0  0  0  0
  4  3  2  0
  5  2  2  0
  7  6  1  0
 11  8  1  0
 12  9  1  0
 13 10  1  0
 15  2  1  0
 15 14  1  0
 16  3  1  0
 17 14  1  0
 17 16  1  0
 18  4  1  0
 19  5  1  0
 20 15  2  0
 21 19  2  0
 21 20  1  0
 22 18  1  0
 23  6  1  1
 23 16  1  0
 23 20  1  0
 23 22  1  0
 24  1  1  0
 24  7  1  0
 24 17  1  0
 25  8  1  0
 25  9  1  0
 25 10  1  0
 18 26  1  1
 27 11  1  0
 27 12  1  0
 28 13  1  0
 28 19  1  0
 29 21  1  0
 29 22  1  0
  1 30  1  0
  1 31  1  0
  1 32  1  0
  2 33  1  0
  3 34  1  0
  4 35  1  0
  5 36  1  0
  6 37  1  0
  6 38  1  0
  7 39  1  0
  7 40  1  0
  8 41  1  0
  8 42  1  0
  9 43  1  0
  9 44  1  0
 10 45  1  0
 10 46  1  0
 11 47  1  0
 11 48  1  0
 12 49  1  0
 12 50  1  0
 13 51  1  0
 13 52  1  0
 14 53  1  0
 14 54  1  0
 16 55  1  1
 17 56  1  6
 18 57  1  0
 22 58  1  1
 26 59  1  0
M  END
>  <ALOGPS_LOGP>  (1) 
1.09

>  <ALOGPS_LOGS>  (1) 
-2.91

>  <ALOGPS_SOLUBILITY>  (1) 
4.89e-01 g/l

>  <DATABASE_ID>  (1) 
DB09209

>  <DATABASE_NAME>  (1) 
drugbank

>  <DRUGBANK_ID>  (1) 
DB09209

>  <DRUG_GROUPS>  (1) 
approved; illicit

>  <EXACT_MASS>  (1) 
398.220557458

>  <FORMULA>  (1) 
C23H30N2O4

>  <GENERIC_NAME>  (1) 
Pholcodine

>  <INCHI_IDENTIFIER>  (1) 
InChI=1S/C23H30N2O4/c1-24-7-6-23-16-3-4-18(26)22(23)29-21-19(5-2-15(20(21)23)14-17(16)24)28-13-10-25-8-11-27-12-9-25/h2-5,16-18,22,26H,6-14H2,1H3/t16-,17+,18-,22-,23-/m0/s1

>  <INCHI_KEY>  (1) 
GPFAJKDEDBRFOS-FKQDBXSBSA-N

>  <JCHEM_ACCEPTOR_COUNT>  (1) 
6

>  <JCHEM_AVERAGE_POLARIZABILITY>  (1) 
43.75949453006665

>  <JCHEM_BIOAVAILABILITY>  (1) 
1

>  <JCHEM_DONOR_COUNT>  (1) 
1

>  <JCHEM_FORMAL_CHARGE>  (1) 
0

>  <JCHEM_GHOSE_FILTER>  (1) 
1

>  <JCHEM_IUPAC>  (1) 
(1S,5R,13R,14S,17R)-4-methyl-10-[2-(morpholin-4-yl)ethoxy]-12-oxa-4-azapentacyclo[9.6.1.0¹,¹³.0⁵,¹⁷.0⁷,¹⁸]octadeca-7(18),8,10,15-tetraen-14-ol

>  <JCHEM_LOGP>  (1) 
1.1430953536666657

>  <JCHEM_MDDR_LIKE_RULE>  (1) 
0

>  <JCHEM_NUMBER_OF_RINGS>  (1) 
6

>  <JCHEM_PHYSIOLOGICAL_CHARGE>  (1) 
1

>  <JCHEM_PKA_STRONGEST_ACIDIC>  (1) 
13.782739243212266

>  <JCHEM_PKA_STRONGEST_BASIC>  (1) 
9.190902538762007

>  <JCHEM_POLAR_SURFACE_AREA>  (1) 
54.400000000000006

>  <JCHEM_REFRACTIVITY>  (1) 
111.6983

>  <JCHEM_ROTATABLE_BOND_COUNT>  (1) 
4

>  <JCHEM_RULE_OF_FIVE>  (1) 
1

>  <JCHEM_TRADITIONAL_IUPAC>  (1) 
memine

>  <JCHEM_VEBER_RULE>  (1) 
0

>  <MOLECULAR_WEIGHT>  (1) 
398.4953

>  <SMILES>  (1) 
[H][C@@]12OC3=C(OCCN4CCOCC4)C=CC4=C3[C@@]11CCN(C)[C@]([H])(C4)[C@]1([H])C=C[C@@H]2O

$$$$
