
     RDKit          2D

 70 75  0  0  0  0  0  0  0  0999 V2000
    7.0651    1.9712    0.0000 C   0  0  0  0  0  0  0  0  0  0  0  0
    4.4513    4.4037    0.0000 C   0  0  0  0  0  0  0  0  0  0  0  0
    3.4115    4.6127    0.0000 C   0  0  0  0  0  0  0  0  0  0  0  0
    6.2834    1.7077    0.0000 C   0  0  0  0  0  0  0  0  0  0  0  0
    0.7440    2.1254    0.0000 C   0  0  0  0  0  0  0  0  0  0  0  0
    1.5654    2.0482    0.0000 C   0  0  0  0  0  0  0  0  0  0  0  0
    7.5530    4.3977    0.0000 C   0  0  0  0  0  0  0  0  0  0  0  0
    8.0095    3.0436    0.0000 C   0  0  0  0  0  0  0  0  0  0  0  0
    6.7712    4.1341    0.0000 C   0  0  0  0  0  0  0  0  0  0  0  0
    7.2278    2.7801    0.0000 C   0  0  0  0  0  0  0  0  0  0  0  0
    9.5730    3.5708    0.0000 C   0  0  0  0  0  0  0  0  0  0  0  0
    9.1165    4.9248    0.0000 C   0  0  0  0  0  0  0  0  0  0  0  0
   10.3548    3.8344    0.0000 C   0  0  0  0  0  0  0  0  0  0  0  0
    9.8983    5.1884    0.0000 C   0  0  0  0  0  0  0  0  0  0  0  0
    0.8777    3.5481    0.0000 C   0  0  0  0  0  0  0  0  0  0  0  0
    4.8825    1.9893    0.0000 C   0  0  0  0  0  0  0  0  0  0  0  0
    5.2077    3.6070    0.0000 C   0  0  0  0  0  0  0  0  0  0  0  0
   -0.4212    2.9525    0.0000 C   0  0  0  0  0  0  0  0  0  0  0  0
    0.4002    2.8753    0.0000 C   0  0  0  0  0  0  0  0  0  0  0  0
    5.6642    2.2529    0.0000 C   0  0  0  0  0  0  0  0  0  0  0  0
    8.1721    3.8524    0.0000 C   0  0  0  0  0  0  0  0  0  0  0  0
    2.0429    2.7210    0.0000 C   0  0  0  0  0  0  0  0  0  0  0  0
    4.2633    2.5346    0.0000 C   0  0  0  0  0  0  0  0  0  0  0  0
    4.4259    3.3434    0.0000 C   0  0  0  0  0  0  0  0  0  0  0  0
    1.6991    3.4709    0.0000 C   0  0  0  0  0  0  0  0  0  0  0  0
    5.8269    3.0617    0.0000 C   0  0  0  0  0  0  0  0  0  0  0  0
    2.8624    2.8162    0.0000 C   0  0  0  0  0  0  0  0  0  0  0  0
    3.4816    2.2710    0.0000 C   0  0  0  0  0  0  0  0  0  0  0  0
    3.0250    3.6251    0.0000 C   0  0  0  0  0  0  0  0  0  0  0  0
    3.8068    3.8886    0.0000 C   0  0  0  0  0  0  0  0  0  0  0  0
   -1.2426    3.0297    0.0000 N   0  0  0  0  0  0  0  0  0  0  0  0
    2.3061    4.0297    0.0000 N   0  0  0  0  0  0  0  0  0  0  0  0
    8.9539    4.1160    0.0000 N   0  0  0  0  0  0  0  0  0  0  0  0
    6.6086    3.3253    0.0000 N   0  0  0  0  0  0  0  0  0  0  0  0
    3.3189    1.4622    0.0000 O   0  0  0  0  0  0  0  0  0  0  0  0
   10.5174    4.6432    0.0000 O   0  0  0  0  0  0  0  0  0  0  0  0
    0.0000    0.0000    0.0000 H   0  0  0  0  0  0  0  0  0  0  0  0
    0.0000    0.0000    0.0000 H   0  0  0  0  0  0  0  0  0  0  0  0
    0.0000    0.0000    0.0000 H   0  0  0  0  0  0  0  0  0  0  0  0
    0.0000    0.0000    0.0000 H   0  0  0  0  0  0  0  0  0  0  0  0
    0.0000    0.0000    0.0000 H   0  0  0  0  0  0  0  0  0  0  0  0
    0.0000    0.0000    0.0000 H   0  0  0  0  0  0  0  0  0  0  0  0
    0.0000    0.0000    0.0000 H   0  0  0  0  0  0  0  0  0  0  0  0
    0.0000    0.0000    0.0000 H   0  0  0  0  0  0  0  0  0  0  0  0
    0.0000    0.0000    0.0000 H   0  0  0  0  0  0  0  0  0  0  0  0
    0.0000    0.0000    0.0000 H   0  0  0  0  0  0  0  0  0  0  0  0
    0.0000    0.0000    0.0000 H   0  0  0  0  0  0  0  0  0  0  0  0
    0.0000    0.0000    0.0000 H   0  0  0  0  0  0  0  0  0  0  0  0
    0.0000    0.0000    0.0000 H   0  0  0  0  0  0  0  0  0  0  0  0
    0.0000    0.0000    0.0000 H   0  0  0  0  0  0  0  0  0  0  0  0
    0.0000    0.0000    0.0000 H   0  0  0  0  0  0  0  0  0  0  0  0
    0.0000    0.0000    0.0000 H   0  0  0  0  0  0  0  0  0  0  0  0
    0.0000    0.0000    0.0000 H   0  0  0  0  0  0  0  0  0  0  0  0
    0.0000    0.0000    0.0000 H   0  0  0  0  0  0  0  0  0  0  0  0
    0.0000    0.0000    0.0000 H   0  0  0  0  0  0  0  0  0  0  0  0
    0.0000    0.0000    0.0000 H   0  0  0  0  0  0  0  0  0  0  0  0
    0.0000    0.0000    0.0000 H   0  0  0  0  0  0  0  0  0  0  0  0
    0.0000    0.0000    0.0000 H   0  0  0  0  0  0  0  0  0  0  0  0
    0.0000    0.0000    0.0000 H   0  0  0  0  0  0  0  0  0  0  0  0
    0.0000    0.0000    0.0000 H   0  0  0  0  0  0  0  0  0  0  0  0
    0.0000    0.0000    0.0000 H   0  0  0  0  0  0  0  0  0  0  0  0
    0.0000    0.0000    0.0000 H   0  0  0  0  0  0  0  0  0  0  0  0
    0.0000    0.0000    0.0000 H   0  0  0  0  0  0  0  0  0  0  0  0
    0.0000    0.0000    0.0000 H   0  0  0  0  0  0  0  0  0  0  0  0
    0.0000    0.0000    0.0000 H   0  0  0  0  0  0  0  0  0  0  0  0
    0.0000    0.0000    0.0000 H   0  0  0  0  0  0  0  0  0  0  0  0
    0.0000    0.0000    0.0000 H   0  0  0  0  0  0  0  0  0  0  0  0
    0.0000    0.0000    0.0000 H   0  0  0  0  0  0  0  0  0  0  0  0
    0.0000    0.0000    0.0000 H   0  0  0  0  0  0  0  0  0  0  0  0
    0.0000    0.0000    0.0000 H   0  0  0  0  0  0  0  0  0  0  0  0
  4  1  1  0
  6  5  2  0
  9  7  1  0
 10  8  1  0
 13 11  1  0
 14 12  1  0
 19  5  1  0
 19 15  2  0
 19 18  1  0
 20  4  1  0
 20 16  1  0
 21  7  1  0
 21  8  1  0
 22  6  1  0
 23 16  2  0
 24 17  2  0
 24 23  1  0
 25 15  1  0
 25 22  2  0
 26 17  1  0
 26 20  2  0
 27 22  1  0
 28 23  1  0
 28 27  1  0
 29 27  2  0
 30  2  1  0
 30  3  1  0
 30 24  1  0
 30 29  1  0
 31 18  3  0
 32 25  1  0
 32 29  1  0
 33 11  1  0
 33 12  1  0
 33 21  1  0
 34  9  1  0
 34 10  1  0
 34 26  1  0
 35 28  2  0
 36 13  1  0
 36 14  1  0
  1 37  1  0
  1 38  1  0
  1 39  1  0
  2 40  1  0
  2 41  1  0
  2 42  1  0
  3 43  1  0
  3 44  1  0
  3 45  1  0
  4 46  1  0
  4 47  1  0
  5 48  1  0
  6 49  1  0
  7 50  1  0
  7 51  1  0
  8 52  1  0
  8 53  1  0
  9 54  1  0
  9 55  1  0
 10 56  1  0
 10 57  1  0
 11 58  1  0
 11 59  1  0
 12 60  1  0
 12 61  1  0
 13 62  1  0
 13 63  1  0
 14 64  1  0
 14 65  1  0
 15 66  1  0
 16 67  1  0
 17 68  1  0
 21 69  1  0
 32 70  1  0
M  END
>  <ALOGPS_LOGP>  (1) 
5.59

>  <ALOGPS_LOGS>  (1) 
-4.66

>  <ALOGPS_SOLUBILITY>  (1) 
1.05e-02 g/l

>  <DATABASE_ID>  (1) 
DB11363

>  <DATABASE_NAME>  (1) 
drugbank

>  <DRUGBANK_ID>  (1) 
DB11363

>  <DRUG_GROUPS>  (1) 
approved

>  <EXACT_MASS>  (1) 
482.268176352

>  <FORMULA>  (1) 
C30H34N4O2

>  <GENERIC_NAME>  (1) 
Alectinib

>  <INCHI_IDENTIFIER>  (1) 
InChI=1S/C30H34N4O2/c1-4-20-16-23-24(17-26(20)34-9-7-21(8-10-34)33-11-13-36-14-12-33)30(2,3)29-27(28(23)35)22-6-5-19(18-31)15-25(22)32-29/h5-6,15-17,21,32H,4,7-14H2,1-3H3

>  <INCHI_KEY>  (1) 
KDGFLJKFZUIJMX-UHFFFAOYSA-N

>  <JCHEM_ACCEPTOR_COUNT>  (1) 
5

>  <JCHEM_AVERAGE_POLARIZABILITY>  (1) 
56.44980444171287

>  <JCHEM_BIOAVAILABILITY>  (1) 
1

>  <JCHEM_DONOR_COUNT>  (1) 
1

>  <JCHEM_FORMAL_CHARGE>  (1) 
0

>  <JCHEM_GHOSE_FILTER>  (1) 
0

>  <JCHEM_IUPAC>  (1) 
9-ethyl-6,6-dimethyl-8-[4-(morpholin-4-yl)piperidin-1-yl]-11-oxo-5H,6H,11H-benzo[b]carbazole-3-carbonitrile

>  <JCHEM_LOGP>  (1) 
4.887412174

>  <JCHEM_MDDR_LIKE_RULE>  (1) 
0

>  <JCHEM_NUMBER_OF_RINGS>  (1) 
6

>  <JCHEM_PHYSIOLOGICAL_CHARGE>  (1) 
1

>  <JCHEM_PKA_STRONGEST_ACIDIC>  (1) 
12.179198462281844

>  <JCHEM_PKA_STRONGEST_BASIC>  (1) 
6.970331520946023

>  <JCHEM_POLAR_SURFACE_AREA>  (1) 
72.36

>  <JCHEM_REFRACTIVITY>  (1) 
155.1128

>  <JCHEM_ROTATABLE_BOND_COUNT>  (1) 
3

>  <JCHEM_RULE_OF_FIVE>  (1) 
1

>  <JCHEM_TRADITIONAL_IUPAC>  (1) 
9-ethyl-6,6-dimethyl-8-[4-(morpholin-4-yl)piperidin-1-yl]-11-oxo-5H-benzo[b]carbazole-3-carbonitrile

>  <JCHEM_VEBER_RULE>  (1) 
0

>  <MOLECULAR_WEIGHT>  (1) 
482.6166

>  <PRODUCTS>  (1) 
Alecensa; Alecensaro

>  <SALTS>  (1) 
Alectinib hydrochloride

>  <SMILES>  (1) 
CCC1=CC2=C(C=C1N1CCC(CC1)N1CCOCC1)C(C)(C)C1=C(C3=C(N1)C=C(C=C3)C#N)C2=O

>  <SYNONYMS>  (1) 
9-ethyl-6,6-dimethyl-8-[4-(morpholin-4-yl)piperidin-1-yl]-11-oxo-6,11-dihydro-5H-benzo[b]carbazole-3-carbonitrile

$$$$
