
     RDKit          2D

 77 78  0  0  1  0  0  0  0  0999 V2000
   -5.7627   12.3818    0.0000 C   0  0  0  0  0  0  0  0  0  0  0  0
   -4.9780   12.6368    0.0000 C   0  0  0  0  0  0  0  0  0  0  0  0
   -4.3650   12.0848    0.0000 C   0  0  0  0  0  0  0  0  0  0  0  0
   -4.5365   11.2778    0.0000 C   0  0  0  0  0  0  0  0  0  0  0  0
   -5.3211   11.0228    0.0000 C   0  0  0  0  0  0  0  0  0  0  0  0
   -5.9342   11.5749    0.0000 C   0  0  0  0  0  0  0  0  0  0  0  0
   -3.9234   10.7258    0.0000 C   0  0  0  0  0  0  0  0  0  0  0  0
   -3.1388   10.9807    0.0000 C   0  0  0  0  0  0  0  0  0  0  0  0
   -2.5257   10.4287    0.0000 C   0  0  0  0  0  0  0  0  0  0  0  0
   -1.7410   10.6836    0.0000 C   0  0  0  0  0  0  0  0  0  0  0  0
   -1.1280   10.1316    0.0000 C   0  0  0  0  0  0  0  0  0  0  0  0
   -0.3433   10.3865    0.0000 C   0  0  0  0  0  0  0  0  0  0  0  0
   -0.0884   11.1711    0.0000 C   0  0  0  0  0  0  0  0  0  0  0  0
    0.7366   11.1711    0.0000 C   0  0  0  0  0  0  0  0  0  0  0  0
    0.9915   10.3865    0.0000 C   0  0  0  0  0  0  0  0  0  0  0  0
    0.3241    9.9016    0.0000 C   0  0  0  0  0  0  0  0  0  0  0  0
    0.3241    9.0766    0.0000 C   0  0  0  0  0  0  0  0  0  0  0  0
   -0.3904    8.6641    0.0000 C   0  0  0  0  0  0  0  0  0  0  0  0
   -0.3904    7.8391    0.0000 C   0  0  0  0  0  0  0  0  0  0  0  0
    0.3241    7.4266    0.0000 C   0  0  0  0  0  0  0  0  0  0  0  0
    1.0386    7.8391    0.0000 C   0  0  0  0  0  0  0  0  0  0  0  0
    1.7530    7.4266    0.0000 C   0  0  0  0  0  0  0  0  0  0  0  0
    2.4675    7.8391    0.0000 C   0  0  0  0  0  0  0  0  0  0  0  0
    2.4675    8.6641    0.0000 O   0  0  0  0  0  0  0  0  0  0  0  0
    3.1820    7.4266    0.0000 O   0  0  0  0  0  0  0  0  0  0  0  0
    3.8965    7.8391    0.0000 C   0  0  0  0  0  0  0  0  0  0  0  0
    4.6109    7.4266    0.0000 C   0  0  0  0  0  0  0  0  0  0  0  0
    5.3254    7.8391    0.0000 C   0  0  0  0  0  0  0  0  0  0  0  0
    6.0399    7.4266    0.0000 C   0  0  0  0  0  0  0  0  0  0  0  0
    6.7543    7.8391    0.0000 O   0  0  0  0  0  0  0  0  0  0  0  0
    7.4688    7.4266    0.0000 N   0  0  0  0  0  0  0  0  0  0  0  0
    8.1833    7.8391    0.0000 O   0  0  0  0  0  0  0  0  0  0  0  0
    7.4688    6.6016    0.0000 O   0  0  0  0  0  0  0  0  0  0  0  0
    1.7762   10.1316    0.0000 O   0  0  0  0  0  0  0  0  0  0  0  0
   -0.5733   11.8386    0.0000 O   0  0  0  0  0  0  0  0  0  0  0  0
   -2.6972    9.6217    0.0000 O   0  0  0  0  0  0  0  0  0  0  0  0
    0.0000    0.0000    0.0000 H   0  0  0  0  0  0  0  0  0  0  0  0
    0.0000    0.0000    0.0000 H   0  0  0  0  0  0  0  0  0  0  0  0
    0.0000    0.0000    0.0000 H   0  0  0  0  0  0  0  0  0  0  0  0
    0.0000    0.0000    0.0000 H   0  0  0  0  0  0  0  0  0  0  0  0
    0.0000    0.0000    0.0000 H   0  0  0  0  0  0  0  0  0  0  0  0
    0.0000    0.0000    0.0000 H   0  0  0  0  0  0  0  0  0  0  0  0
    0.0000    0.0000    0.0000 H   0  0  0  0  0  0  0  0  0  0  0  0
    0.0000    0.0000    0.0000 H   0  0  0  0  0  0  0  0  0  0  0  0
    0.0000    0.0000    0.0000 H   0  0  0  0  0  0  0  0  0  0  0  0
    0.0000    0.0000    0.0000 H   0  0  0  0  0  0  0  0  0  0  0  0
    0.0000    0.0000    0.0000 H   0  0  0  0  0  0  0  0  0  0  0  0
    0.0000    0.0000    0.0000 H   0  0  0  0  0  0  0  0  0  0  0  0
    0.0000    0.0000    0.0000 H   0  0  0  0  0  0  0  0  0  0  0  0
    0.0000    0.0000    0.0000 H   0  0  0  0  0  0  0  0  0  0  0  0
    0.0000    0.0000    0.0000 H   0  0  0  0  0  0  0  0  0  0  0  0
    0.0000    0.0000    0.0000 H   0  0  0  0  0  0  0  0  0  0  0  0
    0.0000    0.0000    0.0000 H   0  0  0  0  0  0  0  0  0  0  0  0
    0.0000    0.0000    0.0000 H   0  0  0  0  0  0  0  0  0  0  0  0
    0.0000    0.0000    0.0000 H   0  0  0  0  0  0  0  0  0  0  0  0
    0.0000    0.0000    0.0000 H   0  0  0  0  0  0  0  0  0  0  0  0
    0.0000    0.0000    0.0000 H   0  0  0  0  0  0  0  0  0  0  0  0
    0.0000    0.0000    0.0000 H   0  0  0  0  0  0  0  0  0  0  0  0
    0.0000    0.0000    0.0000 H   0  0  0  0  0  0  0  0  0  0  0  0
    0.0000    0.0000    0.0000 H   0  0  0  0  0  0  0  0  0  0  0  0
    0.0000    0.0000    0.0000 H   0  0  0  0  0  0  0  0  0  0  0  0
    0.0000    0.0000    0.0000 H   0  0  0  0  0  0  0  0  0  0  0  0
    0.0000    0.0000    0.0000 H   0  0  0  0  0  0  0  0  0  0  0  0
    0.0000    0.0000    0.0000 H   0  0  0  0  0  0  0  0  0  0  0  0
    0.0000    0.0000    0.0000 H   0  0  0  0  0  0  0  0  0  0  0  0
    0.0000    0.0000    0.0000 H   0  0  0  0  0  0  0  0  0  0  0  0
    0.0000    0.0000    0.0000 H   0  0  0  0  0  0  0  0  0  0  0  0
    0.0000    0.0000    0.0000 H   0  0  0  0  0  0  0  0  0  0  0  0
    0.0000    0.0000    0.0000 H   0  0  0  0  0  0  0  0  0  0  0  0
    0.0000    0.0000    0.0000 H   0  0  0  0  0  0  0  0  0  0  0  0
    0.0000    0.0000    0.0000 H   0  0  0  0  0  0  0  0  0  0  0  0
    0.0000    0.0000    0.0000 H   0  0  0  0  0  0  0  0  0  0  0  0
    0.0000    0.0000    0.0000 H   0  0  0  0  0  0  0  0  0  0  0  0
    0.0000    0.0000    0.0000 H   0  0  0  0  0  0  0  0  0  0  0  0
    0.0000    0.0000    0.0000 H   0  0  0  0  0  0  0  0  0  0  0  0
    0.0000    0.0000    0.0000 H   0  0  0  0  0  0  0  0  0  0  0  0
    0.0000    0.0000    0.0000 H   0  0  0  0  0  0  0  0  0  0  0  0
  1  2  2  0
  2  3  1  0
  3  4  2  0
  4  5  1  0
  5  6  2  0
  1  6  1  0
  4  7  1  0
  7  8  1  0
  9  8  1  6
  9 10  1  0
 10 11  1  0
 12 11  1  1
 12 13  1  0
 13 14  1  0
 14 15  1  0
 15 16  1  0
 12 16  1  0
 16 17  1  6
 17 18  1  0
 18 19  2  0
 19 20  1  0
 20 21  1  0
 21 22  1  0
 22 23  1  0
 23 24  2  0
 23 25  1  0
 25 26  1  0
 26 27  1  0
 27 28  1  0
 28 29  1  0
 29 30  1  0
 30 31  1  0
 31 32  2  0
 31 33  1  0
 15 34  1  6
 13 35  1  1
  9 36  1  0
  1 37  1  0
  2 38  1  0
  3 39  1  0
  5 40  1  0
  6 41  1  0
  7 42  1  0
  7 43  1  0
  8 44  1  0
  8 45  1  0
  9 46  1  0
 10 47  1  0
 10 48  1  0
 11 49  1  0
 11 50  1  0
 12 51  1  0
 13 52  1  0
 14 53  1  0
 14 54  1  0
 15 55  1  0
 16 56  1  0
 17 57  1  0
 17 58  1  0
 18 59  1  0
 19 60  1  0
 20 61  1  0
 20 62  1  0
 21 63  1  0
 21 64  1  0
 22 65  1  0
 22 66  1  0
 26 67  1  0
 26 68  1  0
 27 69  1  0
 27 70  1  0
 28 71  1  0
 28 72  1  0
 29 73  1  0
 29 74  1  0
 34 75  1  0
 35 76  1  0
 36 77  1  0
M  CHG  2  31   1  33  -1
M  END
>  <ALOGPS_LOGP>  (1) 
3.94

>  <ALOGPS_LOGS>  (1) 
-5.20

>  <ALOGPS_SOLUBILITY>  (1) 
3.20e-03 g/l

>  <DATABASE_ID>  (1) 
DB11660

>  <DATABASE_NAME>  (1) 
drugbank

>  <DRUGBANK_ID>  (1) 
DB11660

>  <DRUG_GROUPS>  (1) 
approved; investigational

>  <EXACT_MASS>  (1) 
507.283217284

>  <FORMULA>  (1) 
C27H41NO8

>  <GENERIC_NAME>  (1) 
Latanoprostene Bunod

>  <INCHI_IDENTIFIER>  (1) 
InChI=1S/C27H41NO8/c29-22(15-14-21-10-4-3-5-11-21)16-17-24-23(25(30)20-26(24)31)12-6-1-2-7-13-27(32)35-18-8-9-19-36-28(33)34/h1,3-6,10-11,22-26,29-31H,2,7-9,12-20H2/b6-1-/t22-,23+,24+,25-,26+/m0/s1

>  <INCHI_KEY>  (1) 
LOVMMUBRQUFEAH-UIEAZXIASA-N

>  <JCHEM_ACCEPTOR_COUNT>  (1) 
7

>  <JCHEM_ATOM_COUNT>  (1) 
77

>  <JCHEM_AVERAGE_POLARIZABILITY>  (1) 
56.949109575762954

>  <JCHEM_BIOAVAILABILITY>  (1) 
0

>  <JCHEM_DONOR_COUNT>  (1) 
3

>  <JCHEM_FORMAL_CHARGE>  (1) 
0

>  <JCHEM_GHOSE_FILTER>  (1) 
0

>  <JCHEM_IUPAC>  (1) 
4-(nitrooxy)butyl (5Z)-7-[(1R,2R,3R,5S)-3,5-dihydroxy-2-[(3R)-3-hydroxy-5-phenylpentyl]cyclopentyl]hept-5-enoate

>  <JCHEM_LOGP>  (1) 
3.7933643519999993

>  <JCHEM_MDDR_LIKE_RULE>  (1) 
0

>  <JCHEM_NUMBER_OF_RINGS>  (1) 
2

>  <JCHEM_PHYSIOLOGICAL_CHARGE>  (1) 
0

>  <JCHEM_PKA>  (1) 
15.030507756558752

>  <JCHEM_PKA_STRONGEST_ACIDIC>  (1) 
14.468506924942975

>  <JCHEM_PKA_STRONGEST_BASIC>  (1) 
-2.6894106134355082

>  <JCHEM_POLAR_SURFACE_AREA>  (1) 
139.36

>  <JCHEM_REFRACTIVITY>  (1) 
136.66230000000002

>  <JCHEM_ROTATABLE_BOND_COUNT>  (1) 
19

>  <JCHEM_RULE_OF_FIVE>  (1) 
0

>  <JCHEM_TRADITIONAL_IUPAC>  (1) 
4-(nitrooxy)butyl (5Z)-7-[(1R,2R,3R,5S)-3,5-dihydroxy-2-[(3R)-3-hydroxy-5-phenylpentyl]cyclopentyl]hept-5-enoate

>  <JCHEM_VEBER_RULE>  (1) 
0

>  <MOLECULAR_WEIGHT>  (1) 
507.624

>  <PRODUCTS>  (1) 
Vyzulta

>  <SMILES>  (1) 
O[C@H](CC[C@H]1[C@H](O)C[C@H](O)[C@@H]1C\C=C/CCCC(=O)OCCCCO[N+]([O-])=O)CCC1=CC=CC=C1

$$$$
