
     RDKit          2D

 87 89  0  0  0  0  0  0  0  0999 V2000
    0.0000    0.0000    0.0000 Na  0  0  0  0  0  0  0  0  0  0  0  0
    1.0018    0.0000    0.0000 Na  0  0  0  0  0  0  0  0  0  0  0  0
    1.9208   -7.4250    0.0000 O   0  0  0  0  0  0  0  0  0  0  0  0
    2.7458   -7.4250    0.0000 S   0  0  0  0  0  0  0  0  0  0  0  0
    2.7458   -6.6000    0.0000 O   0  0  0  0  0  0  0  0  0  0  0  0
    3.5708   -7.4250    0.0000 O   0  0  0  0  0  0  0  0  0  0  0  0
    2.7458   -8.2500    0.0000 C   0  0  0  0  0  0  0  0  0  0  0  0
    3.4603   -8.6625    0.0000 C   0  0  0  0  0  0  0  0  0  0  0  0
    3.4603   -9.4875    0.0000 C   0  0  0  0  0  0  0  0  0  0  0  0
    2.7458   -9.9000    0.0000 C   0  0  0  0  0  0  0  0  0  0  0  0
    2.0313   -9.4875    0.0000 C   0  0  0  0  0  0  0  0  0  0  0  0
    2.0313   -8.6625    0.0000 C   0  0  0  0  0  0  0  0  0  0  0  0
    1.3169   -9.9000    0.0000 C   0  0  0  0  0  0  0  0  0  0  0  0
    0.6024   -9.4875    0.0000 N   0  0  0  0  0  0  0  0  0  0  0  0
    0.6024   -8.6625    0.0000 C   0  0  0  0  0  0  0  0  0  0  0  0
   -0.1121   -8.2500    0.0000 C   0  0  0  0  0  0  0  0  0  0  0  0
   -0.1121   -7.4250    0.0000 C   0  0  0  0  0  0  0  0  0  0  0  0
    0.6024   -7.0125    0.0000 C   0  0  0  0  0  0  0  0  0  0  0  0
    1.3169   -7.4250    0.0000 C   0  0  0  0  0  0  0  0  0  0  0  0
    1.3169   -8.2500    0.0000 C   0  0  0  0  0  0  0  0  0  0  0  0
    0.6024   -6.1875    0.0000 C   0  0  0  0  0  0  0  0  0  0  0  0
   -0.1121   -5.7750    0.0000 C   0  0  0  0  0  0  0  0  0  0  0  0
   -0.8265   -6.1875    0.0000 C   0  0  0  0  0  0  0  0  0  0  0  0
   -1.5410   -5.7750    0.0000 C   0  0  0  0  0  0  0  0  0  0  0  0
   -1.5410   -4.9500    0.0000 C   0  0  0  0  0  0  0  0  0  0  0  0
   -2.2555   -4.5375    0.0000 N   0  0  0  0  0  0  0  0  0  0  0  0
   -2.2555   -3.7125    0.0000 C   0  0  0  0  0  0  0  0  0  0  0  0
   -2.9700   -3.3000    0.0000 C   0  0  0  0  0  0  0  0  0  0  0  0
   -2.9700   -4.9500    0.0000 C   0  0  0  0  0  0  0  0  0  0  0  0
   -3.6844   -4.5375    0.0000 C   0  0  0  0  0  0  0  0  0  0  0  0
   -4.3989   -4.9500    0.0000 C   0  0  0  0  0  0  0  0  0  0  0  0
   -5.1134   -4.5375    0.0000 C   0  0  0  0  0  0  0  0  0  0  0  0
   -5.1134   -3.7125    0.0000 C   0  0  0  0  0  0  0  0  0  0  0  0
   -4.3989   -3.3000    0.0000 C   0  0  0  0  0  0  0  0  0  0  0  0
   -3.6844   -3.7125    0.0000 C   0  0  0  0  0  0  0  0  0  0  0  0
   -4.3989   -2.4750    0.0000 S   0  0  0  0  0  0  0  0  0  0  0  0
   -3.5739   -2.4750    0.0000 O   0  0  0  0  0  0  0  0  0  0  0  0
   -4.3989   -1.6500    0.0000 O   0  0  0  0  0  0  0  0  0  0  0  0
   -5.2239   -2.4750    0.0000 O   0  0  0  0  0  0  0  0  0  0  0  0
   -0.8265   -4.5375    0.0000 C   0  0  0  0  0  0  0  0  0  0  0  0
   -0.1121   -4.9500    0.0000 C   0  0  0  0  0  0  0  0  0  0  0  0
    1.3169   -5.7750    0.0000 C   0  0  0  0  0  0  0  0  0  0  0  0
    1.3169   -4.9500    0.0000 C   0  0  0  0  0  0  0  0  0  0  0  0
    2.0313   -4.5375    0.0000 C   0  0  0  0  0  0  0  0  0  0  0  0
    2.7458   -4.9500    0.0000 C   0  0  0  0  0  0  0  0  0  0  0  0
    2.7458   -5.7750    0.0000 C   0  0  0  0  0  0  0  0  0  0  0  0
    2.0313   -6.1875    0.0000 C   0  0  0  0  0  0  0  0  0  0  0  0
    3.4603   -4.5375    0.0000 S   0  0  0  0  0  0  0  0  0  0  0  0
    3.8728   -5.2520    0.0000 O   0  0  0  0  0  0  0  0  0  0  0  0
    4.1748   -4.1250    0.0000 O   0  0  0  0  0  0  0  0  0  0  0  0
    3.0478   -3.8230    0.0000 O   0  0  0  0  0  0  0  0  0  0  0  0
   -0.1121   -9.9000    0.0000 C   0  0  0  0  0  0  0  0  0  0  0  0
   -0.8265   -9.4875    0.0000 C   0  0  0  0  0  0  0  0  0  0  0  0
    0.0000    0.0000    0.0000 H   0  0  0  0  0  0  0  0  0  0  0  0
    0.0000    0.0000    0.0000 H   0  0  0  0  0  0  0  0  0  0  0  0
    0.0000    0.0000    0.0000 H   0  0  0  0  0  0  0  0  0  0  0  0
    0.0000    0.0000    0.0000 H   0  0  0  0  0  0  0  0  0  0  0  0
    0.0000    0.0000    0.0000 H   0  0  0  0  0  0  0  0  0  0  0  0
    0.0000    0.0000    0.0000 H   0  0  0  0  0  0  0  0  0  0  0  0
    0.0000    0.0000    0.0000 H   0  0  0  0  0  0  0  0  0  0  0  0
    0.0000    0.0000    0.0000 H   0  0  0  0  0  0  0  0  0  0  0  0
    0.0000    0.0000    0.0000 H   0  0  0  0  0  0  0  0  0  0  0  0
    0.0000    0.0000    0.0000 H   0  0  0  0  0  0  0  0  0  0  0  0
    0.0000    0.0000    0.0000 H   0  0  0  0  0  0  0  0  0  0  0  0
    0.0000    0.0000    0.0000 H   0  0  0  0  0  0  0  0  0  0  0  0
    0.0000    0.0000    0.0000 H   0  0  0  0  0  0  0  0  0  0  0  0
    0.0000    0.0000    0.0000 H   0  0  0  0  0  0  0  0  0  0  0  0
    0.0000    0.0000    0.0000 H   0  0  0  0  0  0  0  0  0  0  0  0
    0.0000    0.0000    0.0000 H   0  0  0  0  0  0  0  0  0  0  0  0
    0.0000    0.0000    0.0000 H   0  0  0  0  0  0  0  0  0  0  0  0
    0.0000    0.0000    0.0000 H   0  0  0  0  0  0  0  0  0  0  0  0
    0.0000    0.0000    0.0000 H   0  0  0  0  0  0  0  0  0  0  0  0
    0.0000    0.0000    0.0000 H   0  0  0  0  0  0  0  0  0  0  0  0
    0.0000    0.0000    0.0000 H   0  0  0  0  0  0  0  0  0  0  0  0
    0.0000    0.0000    0.0000 H   0  0  0  0  0  0  0  0  0  0  0  0
    0.0000    0.0000    0.0000 H   0  0  0  0  0  0  0  0  0  0  0  0
    0.0000    0.0000    0.0000 H   0  0  0  0  0  0  0  0  0  0  0  0
    0.0000    0.0000    0.0000 H   0  0  0  0  0  0  0  0  0  0  0  0
    0.0000    0.0000    0.0000 H   0  0  0  0  0  0  0  0  0  0  0  0
    0.0000    0.0000    0.0000 H   0  0  0  0  0  0  0  0  0  0  0  0
    0.0000    0.0000    0.0000 H   0  0  0  0  0  0  0  0  0  0  0  0
    0.0000    0.0000    0.0000 H   0  0  0  0  0  0  0  0  0  0  0  0
    0.0000    0.0000    0.0000 H   0  0  0  0  0  0  0  0  0  0  0  0
    0.0000    0.0000    0.0000 H   0  0  0  0  0  0  0  0  0  0  0  0
    0.0000    0.0000    0.0000 H   0  0  0  0  0  0  0  0  0  0  0  0
    0.0000    0.0000    0.0000 H   0  0  0  0  0  0  0  0  0  0  0  0
    0.0000    0.0000    0.0000 H   0  0  0  0  0  0  0  0  0  0  0  0
  3  4  1  0
  4  5  2  0
  4  6  2  0
  4  7  1  0
  7  8  2  0
  8  9  1  0
  9 10  2  0
 10 11  1  0
 11 12  2  0
  7 12  1  0
 11 13  1  0
 13 14  1  0
 14 15  1  0
 15 16  2  0
 16 17  1  0
 17 18  2  0
 18 19  1  0
 19 20  2  0
 15 20  1  0
 18 21  1  0
 21 22  2  3
 22 23  1  0
 23 24  2  0
 24 25  1  0
 25 26  2  3
 26 27  1  0
 27 28  1  0
 26 29  1  0
 29 30  1  0
 30 31  2  0
 31 32  1  0
 32 33  2  0
 33 34  1  0
 34 35  2  0
 30 35  1  0
 34 36  1  0
 36 37  1  0
 36 38  2  0
 36 39  2  0
 25 40  1  0
 40 41  2  0
 22 41  1  0
 21 42  1  0
 42 43  2  0
 43 44  1  0
 44 45  2  0
 45 46  1  0
 46 47  2  0
 42 47  1  0
 45 48  1  0
 48 49  1  0
 48 50  2  0
 48 51  2  0
 14 52  1  0
 52 53  1  0
  8 54  1  0
  9 55  1  0
 10 56  1  0
 12 57  1  0
 13 58  1  0
 13 59  1  0
 16 60  1  0
 17 61  1  0
 19 62  1  0
 20 63  1  0
 23 64  1  0
 24 65  1  0
 27 66  1  0
 27 67  1  0
 28 68  1  0
 28 69  1  0
 28 70  1  0
 29 71  1  0
 29 72  1  0
 31 73  1  0
 32 74  1  0
 33 75  1  0
 35 76  1  0
 40 77  1  0
 41 78  1  0
 43 79  1  0
 44 80  1  0
 46 81  1  0
 47 82  1  0
 52 83  1  0
 52 84  1  0
 53 85  1  0
 53 86  1  0
 53 87  1  0
M  CHG  6   1   1   2   1   3  -1  26   1  37  -1  49  -1
M  END
>  <ALOGPS_LOGP>  (1) 
2.08

>  <ALOGPS_LOGS>  (1) 
-7.04

>  <ALOGPS_SOLUBILITY>  (1) 
7.65e-05 g/l

>  <DATABASE_ID>  (1) 
DB11183

>  <DATABASE_NAME>  (1) 
drugbank

>  <DRUGBANK_ID>  (1) 
DB11183

>  <DRUG_GROUPS>  (1) 
approved; experimental

>  <EXACT_MASS>  (1) 
792.122182116

>  <FORMULA>  (1) 
C37H34N2Na2O9S3

>  <GENERIC_NAME>  (1) 
Light green sf yellowish

>  <INCHI_IDENTIFIER>  (1) 
InChI=1S/C37H36N2O9S3.2Na/c1-3-38(25-27-7-5-9-35(23-27)50(43,44)45)32-17-11-29(12-18-32)37(31-15-21-34(22-16-31)49(40,41)42)30-13-19-33(20-14-30)39(4-2)26-28-8-6-10-36(24-28)51(46,47)48;;/h5-24H,3-4,25-26H2,1-2H3,(H2-,40,41,42,43,44,45,46,47,48);;/q;2*+1/p-2

>  <INCHI_KEY>  (1) 
DGOBMKYRQHEFGQ-UHFFFAOYSA-L

>  <JCHEM_ACCEPTOR_COUNT>  (1) 
10

>  <JCHEM_AVERAGE_POLARIZABILITY>  (1) 
77.0519697935987

>  <JCHEM_BIOAVAILABILITY>  (1) 
0

>  <JCHEM_DONOR_COUNT>  (1) 
0

>  <JCHEM_FORMAL_CHARGE>  (1) 
0

>  <JCHEM_GHOSE_FILTER>  (1) 
0

>  <JCHEM_IUPAC>  (1) 
disodium 3-{[ethyl({4-[(4-{ethyl[(3-sulfonatophenyl)methyl]iminiumyl}cyclohexa-2,5-dien-1-ylidene)(4-sulfonatophenyl)methyl]phenyl})amino]methyl}benzene-1-sulfonate

>  <JCHEM_LOGP>  (1) 
2.6766303596989505

>  <JCHEM_MDDR_LIKE_RULE>  (1) 
1

>  <JCHEM_NUMBER_OF_RINGS>  (1) 
5

>  <JCHEM_PHYSIOLOGICAL_CHARGE>  (1) 
-2

>  <JCHEM_PKA>  (1) 
-1.812584035770306

>  <JCHEM_PKA_STRONGEST_ACIDIC>  (1) 
-2.3332389413559538

>  <JCHEM_PKA_STRONGEST_BASIC>  (1) 
3.5212411479153674

>  <JCHEM_POLAR_SURFACE_AREA>  (1) 
177.84999999999997

>  <JCHEM_REFRACTIVITY>  (1) 
218.8001

>  <JCHEM_ROTATABLE_BOND_COUNT>  (1) 
12

>  <JCHEM_RULE_OF_FIVE>  (1) 
0

>  <JCHEM_TRADITIONAL_IUPAC>  (1) 
disodium 3-{[ethyl({4-[(4-{ethyl[(3-sulfonatophenyl)methyl]iminio}cyclohexa-2,5-dien-1-ylidene)(4-sulfonatophenyl)methyl]phenyl})amino]methyl}benzenesulfonate

>  <JCHEM_VEBER_RULE>  (1) 
0

>  <MOLECULAR_WEIGHT>  (1) 
792.848

>  <PRODUCTS>  (1) 
GreenGlo

>  <SMILES>  (1) 
[Na+].[Na+].CCN(CC1=CC(=CC=C1)S([O-])(=O)=O)C1=CC=C(C=C1)C(C1=CC=C(C=C1)S([O-])(=O)=O)=C1C=CC(C=C1)=[N+](CC)CC1=CC=CC(=C1)S([O-])(=O)=O

$$$$
