 
     RDKit          2D

 20 19  0  0  1  0  0  0  0  0999 V2000
   17.6617  -16.2685    0.0000 O   0  0  0  0  0  0  0  0  0  0  0  0
   18.3807  -15.8640    0.0000 C   0  0  0  0  0  0  0  0  0  0  0  0
   19.1447  -16.2685    0.0000 C   0  0  0  0  0  0  0  0  0  0  0  0
   19.8638  -15.8640    0.0000 C   0  0  0  0  0  0  0  0  0  0  0  0
   20.5828  -16.2685    0.0000 C   0  0  0  0  0  0  0  0  0  0  0  0
   18.3807  -15.0102    0.0000 O   0  0  0  0  0  0  0  0  0  0  0  0
   19.1447  -17.1224    0.0000 N   0  0  0  0  0  0  0  0  0  0  0  0
   21.3468  -15.8191    0.0000 Se  0  0  0  0  0  0  0  0  0  0  0  0
   22.5152  -16.2685    0.0000 C   0  0  0  0  0  0  0  0  0  0  0  0
    0.0000    0.0000    0.0000 H   0  0  0  0  0  0  0  0  0  0  0  0
    0.0000    0.0000    0.0000 H   0  0  0  0  0  0  0  0  0  0  0  0
    0.0000    0.0000    0.0000 H   0  0  0  0  0  0  0  0  0  0  0  0
    0.0000    0.0000    0.0000 H   0  0  0  0  0  0  0  0  0  0  0  0
    0.0000    0.0000    0.0000 H   0  0  0  0  0  0  0  0  0  0  0  0
    0.0000    0.0000    0.0000 H   0  0  0  0  0  0  0  0  0  0  0  0
    0.0000    0.0000    0.0000 H   0  0  0  0  0  0  0  0  0  0  0  0
    0.0000    0.0000    0.0000 H   0  0  0  0  0  0  0  0  0  0  0  0
    0.0000    0.0000    0.0000 H   0  0  0  0  0  0  0  0  0  0  0  0
    0.0000    0.0000    0.0000 H   0  0  0  0  0  0  0  0  0  0  0  0
    0.0000    0.0000    0.0000 H   0  0  0  0  0  0  0  0  0  0  0  0
  1  2  1  0
  3  2  1  6
  3  4  1  0
  4  5  1  0
  2  6  2  0
  3  7  1  0
  5  8  1  0
  8  9  1  0
  1 10  1  0
  3 11  1  0
  4 12  1  0
  4 13  1  0
  5 14  1  0
  5 15  1  0
  7 16  1  0
  7 17  1  0
  9 18  1  0
  9 19  1  0
  9 20  1  0
M  END
>  <ALOGPS_LOGP>  (1) 
-2.46

>  <ALOGPS_LOGS>  (1) 
-0.25

>  <ALOGPS_SOLUBILITY>  (1) 
1.09e+02 g/l

>  <DATABASE_ID>  (1) 
DB11142

>  <DATABASE_NAME>  (1) 
drugbank

>  <DRUGBANK_ID>  (1) 
DB11142

>  <DRUG_GROUPS>  (1) 
approved

>  <EXACT_MASS>  (1) 
196.995500429

>  <FORMULA>  (1) 
C5H11NO2Se

>  <GENERIC_NAME>  (1) 
Selenomethionine

>  <INCHI_IDENTIFIER>  (1) 
InChI=1S/C5H11NO2Se/c1-9-3-2-4(6)5(7)8/h4H,2-3,6H2,1H3,(H,7,8)/t4-/m0/s1

>  <INCHI_KEY>  (1) 
RJFAYQIBOAGBLC-BYPYZUCNSA-N

>  <JCHEM_ACCEPTOR_COUNT>  (1) 
3

>  <JCHEM_AVERAGE_POLARIZABILITY>  (1) 
14.638357525864528

>  <JCHEM_BIOAVAILABILITY>  (1) 
1

>  <JCHEM_DONOR_COUNT>  (1) 
2

>  <JCHEM_FORMAL_CHARGE>  (1) 
0

>  <JCHEM_GHOSE_FILTER>  (1) 
0

>  <JCHEM_IUPAC>  (1) 
(2S)-2-amino-4-(methylselanyl)butanoic acid

>  <JCHEM_LOGP>  (1) 
-3.3019949587229283

>  <JCHEM_MDDR_LIKE_RULE>  (1) 
0

>  <JCHEM_NUMBER_OF_RINGS>  (1) 
0

>  <JCHEM_PHYSIOLOGICAL_CHARGE>  (1) 
0

>  <JCHEM_PKA_STRONGEST_ACIDIC>  (1) 
1.5595213885250399

>  <JCHEM_PKA_STRONGEST_BASIC>  (1) 
9.502319448582847

>  <JCHEM_POLAR_SURFACE_AREA>  (1) 
63.31999999999999

>  <JCHEM_REFRACTIVITY>  (1) 
42.90740000000001

>  <JCHEM_ROTATABLE_BOND_COUNT>  (1) 
4

>  <JCHEM_RULE_OF_FIVE>  (1) 
1

>  <JCHEM_TRADITIONAL_IUPAC>  (1) 
L-selenomethionine

>  <JCHEM_VEBER_RULE>  (1) 
0

>  <MOLECULAR_WEIGHT>  (1) 
196.11

>  <PRODUCTS>  (1) 
Bacmin

>  <SMILES>  (1) 
C[Se]CC[C@H](N)C(O)=O

$$$$
