
     RDKit          2D

 16 16  0  0  0  0  0  0  0  0999 V2000
   -0.0417    1.6523    0.0000 O   0  0  0  0  0  0  0  0  0  0  0  0
   -0.0417    0.8258    0.0000 C   0  0  0  0  0  0  0  0  0  0  0  0
   -0.7022    0.4125    0.0000 C   0  0  0  0  0  0  0  0  0  0  0  0
   -0.7022   -0.4125    0.0000 C   0  0  0  0  0  0  0  0  0  0  0  0
   -0.0417   -0.8258    0.0000 C   0  0  0  0  0  0  0  0  0  0  0  0
    0.7022   -0.4125    0.0000 C   0  0  0  0  0  0  0  0  0  0  0  0
    0.7022    0.4125    0.0000 C   0  0  0  0  0  0  0  0  0  0  0  0
    1.4460    0.8258    0.0000 O   0  0  0  0  0  0  0  0  0  0  0  0
   -1.4460   -0.8258    0.0000 C   0  0  0  0  0  0  0  0  0  0  0  0
   -1.4460   -1.6523    0.0000 O   0  0  0  0  0  0  0  0  0  0  0  0
    0.0000    0.0000    0.0000 H   0  0  0  0  0  0  0  0  0  0  0  0
    0.0000    0.0000    0.0000 H   0  0  0  0  0  0  0  0  0  0  0  0
    0.0000    0.0000    0.0000 H   0  0  0  0  0  0  0  0  0  0  0  0
    0.0000    0.0000    0.0000 H   0  0  0  0  0  0  0  0  0  0  0  0
    0.0000    0.0000    0.0000 H   0  0  0  0  0  0  0  0  0  0  0  0
    0.0000    0.0000    0.0000 H   0  0  0  0  0  0  0  0  0  0  0  0
  1  2  1  0
  2  3  2  0
  2  7  1  0
  3  4  1  0
  4  5  2  0
  4  9  1  0
  5  6  1  0
  6  7  2  0
  7  8  1  0
  9 10  2  0
  1 11  1  0
  3 12  1  0
  5 13  1  0
  6 14  1  0
  8 15  1  0
  9 16  1  0
M  END
>  <ALOGPS_LOGP>  (1) 
0.89

>  <ALOGPS_LOGS>  (1) 
-0.99

>  <ALOGPS_SOLUBILITY>  (1) 
1.43e+01 g/l

>  <DATABASE_ID>  (1) 
DB11268

>  <DATABASE_NAME>  (1) 
drugbank

>  <DRUGBANK_ID>  (1) 
DB11268

>  <DRUG_GROUPS>  (1) 
approved

>  <EXACT_MASS>  (1) 
138.031694058

>  <FORMULA>  (1) 
C7H6O3

>  <GENERIC_NAME>  (1) 
Protocatechualdehyde

>  <INCHI_IDENTIFIER>  (1) 
InChI=1S/C7H6O3/c8-4-5-1-2-6(9)7(10)3-5/h1-4,9-10H

>  <INCHI_KEY>  (1) 
IBGBGRVKPALMCQ-UHFFFAOYSA-N

>  <JCHEM_ACCEPTOR_COUNT>  (1) 
3

>  <JCHEM_AVERAGE_POLARIZABILITY>  (1) 
12.865164462048833

>  <JCHEM_BIOAVAILABILITY>  (1) 
1

>  <JCHEM_DONOR_COUNT>  (1) 
2

>  <JCHEM_FORMAL_CHARGE>  (1) 
0

>  <JCHEM_GHOSE_FILTER>  (1) 
0

>  <JCHEM_IUPAC>  (1) 
3,4-dihydroxybenzaldehyde

>  <JCHEM_LOGP>  (1) 
1.0786175173333334

>  <JCHEM_MDDR_LIKE_RULE>  (1) 
0

>  <JCHEM_NUMBER_OF_RINGS>  (1) 
1

>  <JCHEM_PHYSIOLOGICAL_CHARGE>  (1) 
0

>  <JCHEM_PKA>  (1) 
11.884399904920077

>  <JCHEM_PKA_STRONGEST_ACIDIC>  (1) 
7.459808177531965

>  <JCHEM_PKA_STRONGEST_BASIC>  (1) 
-6.325186624643433

>  <JCHEM_POLAR_SURFACE_AREA>  (1) 
57.53

>  <JCHEM_REFRACTIVITY>  (1) 
36.6038

>  <JCHEM_ROTATABLE_BOND_COUNT>  (1) 
1

>  <JCHEM_RULE_OF_FIVE>  (1) 
1

>  <JCHEM_TRADITIONAL_IUPAC>  (1) 
3,4-dihydroxybenzaldehyde

>  <JCHEM_VEBER_RULE>  (1) 
0

>  <MOLECULAR_WEIGHT>  (1) 
138.1207

>  <PRODUCTS>  (1) 
O Hui White Extreme Cellight

>  <SMILES>  (1) 
OC1=CC=C(C=O)C=C1O

>  <SYNONYMS>  (1) 
3,4-dihydroxybenzaldehyde; 3,4-Dihydroxybenzaldehyde; protocatechuic aldehyde; Rancinamycin IV

$$$$
