
     RDKit          2D

  7  6  0  0  0  0  0  0  0  0999 V2000
    0.0409    0.6186    0.0000 O   0  0  0  0  0  0  0  0  0  0  0  0
    0.7015   -0.6186    0.0000 O   0  0  0  0  0  0  0  0  0  0  0  0
    0.0409   -0.2064    0.0000 B   0  0  0  0  0  0  0  0  0  0  0  0
   -0.7015   -0.6186    0.0000 O   0  0  0  0  0  0  0  0  0  0  0  0
    0.0000    0.0000    0.0000 H   0  0  0  0  0  0  0  0  0  0  0  0
    0.0000    0.0000    0.0000 H   0  0  0  0  0  0  0  0  0  0  0  0
    0.0000    0.0000    0.0000 H   0  0  0  0  0  0  0  0  0  0  0  0
  1  3  1  0
  2  3  1  0
  3  4  1  0
  1  5  1  0
  2  6  1  0
  4  7  1  0
M  END
>  <DATABASE_ID>  (1) 
DB11326

>  <DATABASE_NAME>  (1) 
drugbank

>  <DRUGBANK_ID>  (1) 
DB11326

>  <DRUG_GROUPS>  (1) 
approved

>  <EXACT_MASS>  (1) 
62.017524428

>  <FORMULA>  (1) 
BH3O3

>  <GENERIC_NAME>  (1) 
Boric acid

>  <INCHI_IDENTIFIER>  (1) 
InChI=1S/BH3O3/c2-1(3)4/h2-4H

>  <INCHI_KEY>  (1) 
KGBXLFKZBHKPEV-UHFFFAOYSA-N

>  <JCHEM_ACCEPTOR_COUNT>  (1) 
3

>  <JCHEM_AVERAGE_POLARIZABILITY>  (1) 
5.145039272251465

>  <JCHEM_BIOAVAILABILITY>  (1) 
1

>  <JCHEM_DONOR_COUNT>  (1) 
3

>  <JCHEM_FORMAL_CHARGE>  (1) 
0

>  <JCHEM_GHOSE_FILTER>  (1) 
0

>  <JCHEM_IUPAC>  (1) 
boric acid

>  <JCHEM_LOGP>  (1) 
-0.5085999999999995

>  <JCHEM_MDDR_LIKE_RULE>  (1) 
0

>  <JCHEM_NUMBER_OF_RINGS>  (1) 
0

>  <JCHEM_PHYSIOLOGICAL_CHARGE>  (1) 
0

>  <JCHEM_PKA>  (1) 
12.112949480128211

>  <JCHEM_PKA_STRONGEST_ACIDIC>  (1) 
8.698677768419094

>  <JCHEM_PKA_STRONGEST_BASIC>  (1) 
-5.346305507279106

>  <JCHEM_POLAR_SURFACE_AREA>  (1) 
60.69

>  <JCHEM_REFRACTIVITY>  (1) 
7.6937999999999995

>  <JCHEM_ROTATABLE_BOND_COUNT>  (1) 
0

>  <JCHEM_RULE_OF_FIVE>  (1) 
1

>  <JCHEM_TRADITIONAL_IUPAC>  (1) 
boric acid

>  <JCHEM_VEBER_RULE>  (1) 
0

>  <MOLECULAR_WEIGHT>  (1) 
61.833

>  <PRODUCTS>  (1) 
Acide Borique; Boracic Acid Pwr; Boric Acid; Boric Acid Pwr 100%; Boric Acid Solution 2.5%; British Army Foot Pwr; Collyre Hygienique Soker; Eye Eze; Eye Wash 2.5%; Eyewash; Glycothymoline; Gynox-soft; Miel Rosada; Occu-cal Drops; Occu-cal Lotion; R.O.-eyewash; Sel De Perou; Sha-lem; Sodium Borate; Super Septic; Thunas Eye Drops; Trimo San Deodorant Vaginal Jelly

>  <SALTS>  (1) 
Sodium borate; Sodium borate decahydrate

>  <SMILES>  (1) 
OB(O)O

>  <SYNONYMS>  (1) 
boracic acid; hydrogen borate; orthoboric acid

$$$$
