
     RDKit          2D

125126  0  0  0  0  0  0  0  0999 V2000
   -2.1434    4.3312    0.0000 C   0  0  0  0  0  0  0  0  0  0  0  0
   -1.4289    3.9187    0.0000 C   0  0  0  0  0  0  0  0  0  0  0  0
   -1.4289    3.0937    0.0000 C   0  0  0  0  0  0  0  0  0  0  0  0
   -0.7144    2.6812    0.0000 O   0  0  0  0  0  0  0  0  0  0  0  0
   -0.7144    1.8562    0.0000 C   0  0  0  0  0  0  0  0  0  0  0  0
    0.0000    1.4437    0.0000 C   0  0  0  0  0  0  0  0  0  0  0  0
    0.7144    1.8562    0.0000 C   0  0  0  0  0  0  0  0  0  0  0  0
    1.4289    1.4437    0.0000 C   0  0  0  0  0  0  0  0  0  0  0  0
    1.4289    0.6187    0.0000 C   0  0  0  0  0  0  0  0  0  0  0  0
    0.7144    0.2062    0.0000 C   0  0  0  0  0  0  0  0  0  0  0  0
    0.0000    0.6187    0.0000 O   0  0  0  0  0  0  0  0  0  0  0  0
    0.7144   -0.6187    0.0000 O   0  0  0  0  0  0  0  0  0  0  0  0
    0.0000   -1.0312    0.0000 C   0  0  0  0  0  0  0  0  0  0  0  0
    0.0000   -1.8562    0.0000 C   0  0  0  0  0  0  0  0  0  0  0  0
   -0.7144   -2.2687    0.0000 O   0  0  0  0  0  0  0  0  0  0  0  0
   -1.4289   -1.8562    0.0000 C   0  0  0  0  0  0  0  0  0  0  0  0
   -1.4289   -1.0312    0.0000 C   0  0  0  0  0  0  0  0  0  0  0  0
   -0.7144   -0.6187    0.0000 C   0  0  0  0  0  0  0  0  0  0  0  0
   -0.7144    0.2062    0.0000 O   0  0  0  0  0  0  0  0  0  0  0  0
   -1.4289    0.6187    0.0000 C   0  0  0  0  0  0  0  0  0  0  0  0
   -1.4289    1.4437    0.0000 C   0  0  0  0  0  0  0  0  0  0  0  0
   -1.0933    2.1974    0.0000 C   0  0  0  0  0  0  0  0  0  0  0  0
   -2.1434    1.8562    0.0000 O   0  0  0  0  0  0  0  0  0  0  0  0
   -2.1434   -0.6187    0.0000 O   0  0  0  0  0  0  0  0  0  0  0  0
   -2.8578   -1.0312    0.0000 C   0  0  0  0  0  0  0  0  0  0  0  0
   -3.5723   -0.6187    0.0000 C   0  0  0  0  0  0  0  0  0  0  0  0
   -4.2868   -1.0312    0.0000 C   0  0  0  0  0  0  0  0  0  0  0  0
   -3.5723    0.2062    0.0000 O   0  0  0  0  0  0  0  0  0  0  0  0
   -2.1434   -2.2687    0.0000 O   0  0  0  0  0  0  0  0  0  0  0  0
   -2.1434   -3.0937    0.0000 C   0  0  0  0  0  0  0  0  0  0  0  0
   -2.8578   -3.5062    0.0000 C   0  0  0  0  0  0  0  0  0  0  0  0
   -2.8578   -4.3312    0.0000 C   0  0  0  0  0  0  0  0  0  0  0  0
   -3.5723   -3.0937    0.0000 O   0  0  0  0  0  0  0  0  0  0  0  0
    0.7144   -2.2687    0.0000 C   0  0  0  0  0  0  0  0  0  0  0  0
    1.4289   -1.8562    0.0000 O   0  0  0  0  0  0  0  0  0  0  0  0
    2.1434   -2.2687    0.0000 C   0  0  0  0  0  0  0  0  0  0  0  0
    2.8578   -1.8562    0.0000 C   0  0  0  0  0  0  0  0  0  0  0  0
    3.5723   -2.2687    0.0000 C   0  0  0  0  0  0  0  0  0  0  0  0
    2.8578   -1.0312    0.0000 O   0  0  0  0  0  0  0  0  0  0  0  0
    2.1434    0.2062    0.0000 O   0  0  0  0  0  0  0  0  0  0  0  0
    2.8578    0.6187    0.0000 C   0  0  0  0  0  0  0  0  0  0  0  0
    3.5723    0.2062    0.0000 C   0  0  0  0  0  0  0  0  0  0  0  0
    4.2868    0.6187    0.0000 C   0  0  0  0  0  0  0  0  0  0  0  0
    3.5723   -0.6187    0.0000 O   0  0  0  0  0  0  0  0  0  0  0  0
    2.1434    1.8562    0.0000 O   0  0  0  0  0  0  0  0  0  0  0  0
    2.1434    2.6812    0.0000 C   0  0  0  0  0  0  0  0  0  0  0  0
    2.8578    3.0937    0.0000 C   0  0  0  0  0  0  0  0  0  0  0  0
    2.8578    3.9187    0.0000 C   0  0  0  0  0  0  0  0  0  0  0  0
    3.5723    2.6812    0.0000 O   0  0  0  0  0  0  0  0  0  0  0  0
    0.7144    2.6812    0.0000 O   0  0  0  0  0  0  0  0  0  0  0  0
    1.4289    3.0937    0.0000 C   0  0  0  0  0  0  0  0  0  0  0  0
    1.4289    3.9187    0.0000 C   0  0  0  0  0  0  0  0  0  0  0  0
    0.7144    4.3312    0.0000 C   0  0  0  0  0  0  0  0  0  0  0  0
    2.1434    4.3312    0.0000 O   0  0  0  0  0  0  0  0  0  0  0  0
   -0.7144    4.3312    0.0000 O   0  0  0  0  0  0  0  0  0  0  0  0
    0.0000    0.0000    0.0000 H   0  0  0  0  0  0  0  0  0  0  0  0
    0.0000    0.0000    0.0000 H   0  0  0  0  0  0  0  0  0  0  0  0
    0.0000    0.0000    0.0000 H   0  0  0  0  0  0  0  0  0  0  0  0
    0.0000    0.0000    0.0000 H   0  0  0  0  0  0  0  0  0  0  0  0
    0.0000    0.0000    0.0000 H   0  0  0  0  0  0  0  0  0  0  0  0
    0.0000    0.0000    0.0000 H   0  0  0  0  0  0  0  0  0  0  0  0
    0.0000    0.0000    0.0000 H   0  0  0  0  0  0  0  0  0  0  0  0
    0.0000    0.0000    0.0000 H   0  0  0  0  0  0  0  0  0  0  0  0
    0.0000    0.0000    0.0000 H   0  0  0  0  0  0  0  0  0  0  0  0
    0.0000    0.0000    0.0000 H   0  0  0  0  0  0  0  0  0  0  0  0
    0.0000    0.0000    0.0000 H   0  0  0  0  0  0  0  0  0  0  0  0
    0.0000    0.0000    0.0000 H   0  0  0  0  0  0  0  0  0  0  0  0
    0.0000    0.0000    0.0000 H   0  0  0  0  0  0  0  0  0  0  0  0
    0.0000    0.0000    0.0000 H   0  0  0  0  0  0  0  0  0  0  0  0
    0.0000    0.0000    0.0000 H   0  0  0  0  0  0  0  0  0  0  0  0
    0.0000    0.0000    0.0000 H   0  0  0  0  0  0  0  0  0  0  0  0
    0.0000    0.0000    0.0000 H   0  0  0  0  0  0  0  0  0  0  0  0
    0.0000    0.0000    0.0000 H   0  0  0  0  0  0  0  0  0  0  0  0
    0.0000    0.0000    0.0000 H   0  0  0  0  0  0  0  0  0  0  0  0
    0.0000    0.0000    0.0000 H   0  0  0  0  0  0  0  0  0  0  0  0
    0.0000    0.0000    0.0000 H   0  0  0  0  0  0  0  0  0  0  0  0
    0.0000    0.0000    0.0000 H   0  0  0  0  0  0  0  0  0  0  0  0
    0.0000    0.0000    0.0000 H   0  0  0  0  0  0  0  0  0  0  0  0
    0.0000    0.0000    0.0000 H   0  0  0  0  0  0  0  0  0  0  0  0
    0.0000    0.0000    0.0000 H   0  0  0  0  0  0  0  0  0  0  0  0
    0.0000    0.0000    0.0000 H   0  0  0  0  0  0  0  0  0  0  0  0
    0.0000    0.0000    0.0000 H   0  0  0  0  0  0  0  0  0  0  0  0
    0.0000    0.0000    0.0000 H   0  0  0  0  0  0  0  0  0  0  0  0
    0.0000    0.0000    0.0000 H   0  0  0  0  0  0  0  0  0  0  0  0
    0.0000    0.0000    0.0000 H   0  0  0  0  0  0  0  0  0  0  0  0
    0.0000    0.0000    0.0000 H   0  0  0  0  0  0  0  0  0  0  0  0
    0.0000    0.0000    0.0000 H   0  0  0  0  0  0  0  0  0  0  0  0
    0.0000    0.0000    0.0000 H   0  0  0  0  0  0  0  0  0  0  0  0
    0.0000    0.0000    0.0000 H   0  0  0  0  0  0  0  0  0  0  0  0
    0.0000    0.0000    0.0000 H   0  0  0  0  0  0  0  0  0  0  0  0
    0.0000    0.0000    0.0000 H   0  0  0  0  0  0  0  0  0  0  0  0
    0.0000    0.0000    0.0000 H   0  0  0  0  0  0  0  0  0  0  0  0
    0.0000    0.0000    0.0000 H   0  0  0  0  0  0  0  0  0  0  0  0
    0.0000    0.0000    0.0000 H   0  0  0  0  0  0  0  0  0  0  0  0
    0.0000    0.0000    0.0000 H   0  0  0  0  0  0  0  0  0  0  0  0
    0.0000    0.0000    0.0000 H   0  0  0  0  0  0  0  0  0  0  0  0
    0.0000    0.0000    0.0000 H   0  0  0  0  0  0  0  0  0  0  0  0
    0.0000    0.0000    0.0000 H   0  0  0  0  0  0  0  0  0  0  0  0
    0.0000    0.0000    0.0000 H   0  0  0  0  0  0  0  0  0  0  0  0
    0.0000    0.0000    0.0000 H   0  0  0  0  0  0  0  0  0  0  0  0
    0.0000    0.0000    0.0000 H   0  0  0  0  0  0  0  0  0  0  0  0
    0.0000    0.0000    0.0000 H   0  0  0  0  0  0  0  0  0  0  0  0
    0.0000    0.0000    0.0000 H   0  0  0  0  0  0  0  0  0  0  0  0
    0.0000    0.0000    0.0000 H   0  0  0  0  0  0  0  0  0  0  0  0
    0.0000    0.0000    0.0000 H   0  0  0  0  0  0  0  0  0  0  0  0
    0.0000    0.0000    0.0000 H   0  0  0  0  0  0  0  0  0  0  0  0
    0.0000    0.0000    0.0000 H   0  0  0  0  0  0  0  0  0  0  0  0
    0.0000    0.0000    0.0000 H   0  0  0  0  0  0  0  0  0  0  0  0
    0.0000    0.0000    0.0000 H   0  0  0  0  0  0  0  0  0  0  0  0
    0.0000    0.0000    0.0000 H   0  0  0  0  0  0  0  0  0  0  0  0
    0.0000    0.0000    0.0000 H   0  0  0  0  0  0  0  0  0  0  0  0
    0.0000    0.0000    0.0000 H   0  0  0  0  0  0  0  0  0  0  0  0
    0.0000    0.0000    0.0000 H   0  0  0  0  0  0  0  0  0  0  0  0
    0.0000    0.0000    0.0000 H   0  0  0  0  0  0  0  0  0  0  0  0
    0.0000    0.0000    0.0000 H   0  0  0  0  0  0  0  0  0  0  0  0
    0.0000    0.0000    0.0000 H   0  0  0  0  0  0  0  0  0  0  0  0
    0.0000    0.0000    0.0000 H   0  0  0  0  0  0  0  0  0  0  0  0
    0.0000    0.0000    0.0000 H   0  0  0  0  0  0  0  0  0  0  0  0
    0.0000    0.0000    0.0000 H   0  0  0  0  0  0  0  0  0  0  0  0
    0.0000    0.0000    0.0000 H   0  0  0  0  0  0  0  0  0  0  0  0
    0.0000    0.0000    0.0000 H   0  0  0  0  0  0  0  0  0  0  0  0
    0.0000    0.0000    0.0000 H   0  0  0  0  0  0  0  0  0  0  0  0
    0.0000    0.0000    0.0000 H   0  0  0  0  0  0  0  0  0  0  0  0
    0.0000    0.0000    0.0000 H   0  0  0  0  0  0  0  0  0  0  0  0
    0.0000    0.0000    0.0000 H   0  0  0  0  0  0  0  0  0  0  0  0
  1  2  1  0
  2  3  1  0
  3  4  1  0
  4  5  1  0
  5  6  1  0
  6  7  1  0
  7  8  1  0
  8  9  1  0
  9 10  1  0
 10 11  1  0
  6 11  1  0
 10 12  1  0
 12 13  1  0
 13 14  1  0
 14 15  1  0
 15 16  1  0
 16 17  1  0
 17 18  1  0
 13 18  1  0
 18 19  1  0
 19 20  1  0
 20 21  1  0
 21 22  1  0
 21 23  1  0
 17 24  1  0
 24 25  1  0
 25 26  1  0
 26 27  1  0
 26 28  1  0
 16 29  1  0
 29 30  1  0
 30 31  1  0
 31 32  1  0
 31 33  1  0
 14 34  1  0
 34 35  1  0
 35 36  1  0
 36 37  1  0
 37 38  1  0
 37 39  1  0
  9 40  1  0
 40 41  1  0
 41 42  1  0
 42 43  1  0
 42 44  1  0
  8 45  1  0
 45 46  1  0
 46 47  1  0
 47 48  1  0
 47 49  1  0
  7 50  1  0
 50 51  1  0
 51 52  1  0
 52 53  1  0
 52 54  1  0
  2 55  1  0
  1 56  1  0
  1 57  1  0
  1 58  1  0
  2 59  1  0
  3 60  1  0
  3 61  1  0
  5 62  1  0
  5 63  1  0
  6 64  1  0
  7 65  1  0
  8 66  1  0
  9 67  1  0
 10 68  1  0
 13 69  1  0
 14 70  1  0
 16 71  1  0
 17 72  1  0
 18 73  1  0
 20 74  1  0
 20 75  1  0
 21 76  1  0
 22 77  1  0
 22 78  1  0
 22 79  1  0
 23 80  1  0
 25 81  1  0
 25 82  1  0
 26 83  1  0
 27 84  1  0
 27 85  1  0
 27 86  1  0
 28 87  1  0
 30 88  1  0
 30 89  1  0
 31 90  1  0
 32 91  1  0
 32 92  1  0
 32 93  1  0
 33 94  1  0
 34 95  1  0
 34 96  1  0
 36 97  1  0
 36 98  1  0
 37 99  1  0
 38100  1  0
 38101  1  0
 38102  1  0
 39103  1  0
 41104  1  0
 41105  1  0
 42106  1  0
 43107  1  0
 43108  1  0
 43109  1  0
 44110  1  0
 46111  1  0
 46112  1  0
 47113  1  0
 48114  1  0
 48115  1  0
 48116  1  0
 49117  1  0
 51118  1  0
 51119  1  0
 52120  1  0
 53121  1  0
 53122  1  0
 53123  1  0
 54124  1  0
 55125  1  0
M  END
>  <ALOGPS_LOGP>  (1) 
-1.14

>  <ALOGPS_LOGS>  (1) 
-2.45

>  <ALOGPS_SOLUBILITY>  (1) 
2.85e+00 g/l

>  <DATABASE_ID>  (1) 
DB11602

>  <DATABASE_NAME>  (1) 
drugbank

>  <DRUGBANK_ID>  (1) 
DB11602

>  <DRUG_GROUPS>  (1) 
approved

>  <EXACT_MASS>  (1) 
806.451130034

>  <FORMULA>  (1) 
C36H70O19

>  <GENERIC_NAME>  (1) 
Hydroxyethyl cellulose

>  <INCHI_IDENTIFIER>  (1) 
InChI=1S/C36H70O19/c1-19(37)9-45-17-27-29(47-11-21(3)39)31(48-12-22(4)40)34(51-15-25(7)43)36(54-27)55-30-28(18-46-10-20(2)38)53-35(52-16-26(8)44)33(50-14-24(6)42)32(30)49-13-23(5)41/h19-44H,9-18H2,1-8H3

>  <INCHI_KEY>  (1) 
DFJVHKAPIXJTSC-UHFFFAOYSA-N

>  <JCHEM_ACCEPTOR_COUNT>  (1) 
19

>  <JCHEM_ATOM_COUNT>  (1) 
125

>  <JCHEM_AVERAGE_POLARIZABILITY>  (1) 
87.56483129952528

>  <JCHEM_BIOAVAILABILITY>  (1) 
0

>  <JCHEM_DONOR_COUNT>  (1) 
8

>  <JCHEM_FORMAL_CHARGE>  (1) 
0

>  <JCHEM_GHOSE_FILTER>  (1) 
0

>  <JCHEM_IUPAC>  (1) 
1-{[3,4,5-tris(2-hydroxypropoxy)-6-{[4,5,6-tris(2-hydroxypropoxy)-2-[(2-hydroxypropoxy)methyl]oxan-3-yl]oxy}oxan-2-yl]methoxy}propan-2-ol

>  <JCHEM_LOGP>  (1) 
-1.746578733000001

>  <JCHEM_MDDR_LIKE_RULE>  (1) 
0

>  <JCHEM_NUMBER_OF_RINGS>  (1) 
2

>  <JCHEM_PHYSIOLOGICAL_CHARGE>  (1) 
0

>  <JCHEM_PKA>  (1) 
14.308113148824738

>  <JCHEM_PKA_STRONGEST_ACIDIC>  (1) 
13.949090142377614

>  <JCHEM_PKA_STRONGEST_BASIC>  (1) 
-2.8628589158155773

>  <JCHEM_POLAR_SURFACE_AREA>  (1) 
263.36999999999995

>  <JCHEM_REFRACTIVITY>  (1) 
192.0351000000001

>  <JCHEM_ROTATABLE_BOND_COUNT>  (1) 
28

>  <JCHEM_RULE_OF_FIVE>  (1) 
0

>  <JCHEM_TRADITIONAL_IUPAC>  (1) 
1-{[3,4,5-tris(2-hydroxypropoxy)-6-{[4,5,6-tris(2-hydroxypropoxy)-2-[(2-hydroxypropoxy)methyl]oxan-3-yl]oxy}oxan-2-yl]methoxy}propan-2-ol

>  <JCHEM_VEBER_RULE>  (1) 
0

>  <MOLECULAR_WEIGHT>  (1) 
806.937

>  <PRODUCTS>  (1) 
Jenacell Supercell Serum; Odan-atropine; Phenylephrine/hydroxyethylcellulose; Rohto Hydra

>  <SALTS>  (1) 
Hydroxyethyl cellulose (100 MPa.s at 2%); Hydroxyethyl cellulose (140 MPa.s at 5%); Hydroxyethyl cellulose (1500 MPa.s at 1%); Hydroxyethyl cellulose (1800 MPa.s at 2%); Hydroxyethyl cellulose (2000 MPa.s at 1%); Hydroxyethyl cellulose (280 MPa.s at 2%); Hydroxyethyl cellulose (280 MPa.s at 5%); Hydroxyethyl cellulose (3000 MPa.s at 1%); Hydroxyethyl cellulose (40 MPa.s at 2%); Hydroxyethyl cellulose (4000 MPa.s at 1%); Hydroxyethyl cellulose (5000 MPa.s at 1%); Hydroxyethyl cellulose (5500 MPa.s at 2%); Hydroxyethyl cellulose (6500 MPa.s at 2%)

>  <SMILES>  (1) 
CC(O)COCC1OC(OC2C(COCC(C)O)OC(OCC(C)O)C(OCC(C)O)C2OCC(C)O)C(OCC(C)O)C(OCC(C)O)C1OCC(C)O

>  <SYNONYMS>  (1) 
2-Hydroxyethyl cellulose ether; Cellulose hydroxyethyl ether; Cellulose hydroxyethylate; hydroxyethylcellulose

$$$$
