
     RDKit          2D

 64 63  0  0  0  0  0  0  0  0999 V2000
    6.1875   -5.9240    0.0000 C   0  0  0  0  0  0  0  0  0  0  0  0
    6.3434   -5.1139    0.0000 C   0  0  0  0  0  0  0  0  0  0  0  0
    7.1230   -4.8439    0.0000 O   0  0  0  0  0  0  0  0  0  0  0  0
    7.2789   -4.0337    0.0000 C   0  0  0  0  0  0  0  0  0  0  0  0
    8.0584   -3.7637    0.0000 C   0  0  0  0  0  0  0  0  0  0  0  0
    8.2143   -2.9535    0.0000 P   0  0  0  0  0  0  0  0  0  0  0  0
    7.5907   -2.4135    0.0000 C   0  0  0  0  0  0  0  0  0  0  0  0
    6.8111   -2.6835    0.0000 C   0  0  0  0  0  0  0  0  0  0  0  0
    6.1875   -2.1434    0.0000 O   0  0  0  0  0  0  0  0  0  0  0  0
    5.4079   -2.4135    0.0000 C   0  0  0  0  0  0  0  0  0  0  0  0
    4.7843   -1.8734    0.0000 C   0  0  0  0  0  0  0  0  0  0  0  0
    8.9939   -2.6835    0.0000 C   0  0  0  0  0  0  0  0  0  0  0  0
    9.1498   -1.8734    0.0000 C   0  0  0  0  0  0  0  0  0  0  0  0
    9.9293   -1.6033    0.0000 P   0  0  0  0  0  0  0  0  0  0  0  0
   10.0853   -0.7932    0.0000 C   0  0  0  0  0  0  0  0  0  0  0  0
   10.8648   -0.5231    0.0000 C   0  0  0  0  0  0  0  0  0  0  0  0
   11.0207    0.2870    0.0000 O   0  0  0  0  0  0  0  0  0  0  0  0
   11.8003    0.5570    0.0000 C   0  0  0  0  0  0  0  0  0  0  0  0
   11.9562    1.3672    0.0000 C   0  0  0  0  0  0  0  0  0  0  0  0
   10.5530   -2.1434    0.0000 C   0  0  0  0  0  0  0  0  0  0  0  0
   11.3325   -1.8734    0.0000 C   0  0  0  0  0  0  0  0  0  0  0  0
   11.9562   -2.4135    0.0000 O   0  0  0  0  0  0  0  0  0  0  0  0
   12.7357   -2.1434    0.0000 C   0  0  0  0  0  0  0  0  0  0  0  0
   13.3594   -2.6835    0.0000 C   0  0  0  0  0  0  0  0  0  0  0  0
    0.0000    0.0000    0.0000 H   0  0  0  0  0  0  0  0  0  0  0  0
    0.0000    0.0000    0.0000 H   0  0  0  0  0  0  0  0  0  0  0  0
    0.0000    0.0000    0.0000 H   0  0  0  0  0  0  0  0  0  0  0  0
    0.0000    0.0000    0.0000 H   0  0  0  0  0  0  0  0  0  0  0  0
    0.0000    0.0000    0.0000 H   0  0  0  0  0  0  0  0  0  0  0  0
    0.0000    0.0000    0.0000 H   0  0  0  0  0  0  0  0  0  0  0  0
    0.0000    0.0000    0.0000 H   0  0  0  0  0  0  0  0  0  0  0  0
    0.0000    0.0000    0.0000 H   0  0  0  0  0  0  0  0  0  0  0  0
    0.0000    0.0000    0.0000 H   0  0  0  0  0  0  0  0  0  0  0  0
    0.0000    0.0000    0.0000 H   0  0  0  0  0  0  0  0  0  0  0  0
    0.0000    0.0000    0.0000 H   0  0  0  0  0  0  0  0  0  0  0  0
    0.0000    0.0000    0.0000 H   0  0  0  0  0  0  0  0  0  0  0  0
    0.0000    0.0000    0.0000 H   0  0  0  0  0  0  0  0  0  0  0  0
    0.0000    0.0000    0.0000 H   0  0  0  0  0  0  0  0  0  0  0  0
    0.0000    0.0000    0.0000 H   0  0  0  0  0  0  0  0  0  0  0  0
    0.0000    0.0000    0.0000 H   0  0  0  0  0  0  0  0  0  0  0  0
    0.0000    0.0000    0.0000 H   0  0  0  0  0  0  0  0  0  0  0  0
    0.0000    0.0000    0.0000 H   0  0  0  0  0  0  0  0  0  0  0  0
    0.0000    0.0000    0.0000 H   0  0  0  0  0  0  0  0  0  0  0  0
    0.0000    0.0000    0.0000 H   0  0  0  0  0  0  0  0  0  0  0  0
    0.0000    0.0000    0.0000 H   0  0  0  0  0  0  0  0  0  0  0  0
    0.0000    0.0000    0.0000 H   0  0  0  0  0  0  0  0  0  0  0  0
    0.0000    0.0000    0.0000 H   0  0  0  0  0  0  0  0  0  0  0  0
    0.0000    0.0000    0.0000 H   0  0  0  0  0  0  0  0  0  0  0  0
    0.0000    0.0000    0.0000 H   0  0  0  0  0  0  0  0  0  0  0  0
    0.0000    0.0000    0.0000 H   0  0  0  0  0  0  0  0  0  0  0  0
    0.0000    0.0000    0.0000 H   0  0  0  0  0  0  0  0  0  0  0  0
    0.0000    0.0000    0.0000 H   0  0  0  0  0  0  0  0  0  0  0  0
    0.0000    0.0000    0.0000 H   0  0  0  0  0  0  0  0  0  0  0  0
    0.0000    0.0000    0.0000 H   0  0  0  0  0  0  0  0  0  0  0  0
    0.0000    0.0000    0.0000 H   0  0  0  0  0  0  0  0  0  0  0  0
    0.0000    0.0000    0.0000 H   0  0  0  0  0  0  0  0  0  0  0  0
    0.0000    0.0000    0.0000 H   0  0  0  0  0  0  0  0  0  0  0  0
    0.0000    0.0000    0.0000 H   0  0  0  0  0  0  0  0  0  0  0  0
    0.0000    0.0000    0.0000 H   0  0  0  0  0  0  0  0  0  0  0  0
    0.0000    0.0000    0.0000 H   0  0  0  0  0  0  0  0  0  0  0  0
    0.0000    0.0000    0.0000 H   0  0  0  0  0  0  0  0  0  0  0  0
    0.0000    0.0000    0.0000 H   0  0  0  0  0  0  0  0  0  0  0  0
    0.0000    0.0000    0.0000 H   0  0  0  0  0  0  0  0  0  0  0  0
    0.0000    0.0000    0.0000 H   0  0  0  0  0  0  0  0  0  0  0  0
  1  2  1  0
  2  3  1  0
  3  4  1  0
  4  5  1  0
  5  6  1  0
  6  7  1  0
  7  8  1  0
  8  9  1  0
  9 10  1  0
 10 11  1  0
  6 12  1  0
 12 13  1  0
 13 14  1  0
 14 15  1  0
 15 16  1  0
 16 17  1  0
 17 18  1  0
 18 19  1  0
 14 20  1  0
 20 21  1  0
 21 22  1  0
 22 23  1  0
 23 24  1  0
  1 25  1  0
  1 26  1  0
  1 27  1  0
  2 28  1  0
  2 29  1  0
  4 30  1  0
  4 31  1  0
  5 32  1  0
  5 33  1  0
  7 34  1  0
  7 35  1  0
  8 36  1  0
  8 37  1  0
 10 38  1  0
 10 39  1  0
 11 40  1  0
 11 41  1  0
 11 42  1  0
 12 43  1  0
 12 44  1  0
 13 45  1  0
 13 46  1  0
 15 47  1  0
 15 48  1  0
 16 49  1  0
 16 50  1  0
 18 51  1  0
 18 52  1  0
 19 53  1  0
 19 54  1  0
 19 55  1  0
 20 56  1  0
 20 57  1  0
 21 58  1  0
 21 59  1  0
 23 60  1  0
 23 61  1  0
 24 62  1  0
 24 63  1  0
 24 64  1  0
M  END
>  <ALOGPS_LOGP>  (1) 
3.85

>  <ALOGPS_LOGS>  (1) 
-5.76

>  <ALOGPS_SOLUBILITY>  (1) 
6.64e-04 g/l

>  <DATABASE_ID>  (1) 
DB11180

>  <DATABASE_NAME>  (1) 
drugbank

>  <DRUGBANK_ID>  (1) 
DB11180

>  <DRUG_GROUPS>  (1) 
approved

>  <EXACT_MASS>  (1) 
382.240183764

>  <FORMULA>  (1) 
C18H40O4P2

>  <GENERIC_NAME>  (1) 
Tetrofosmin

>  <INCHI_IDENTIFIER>  (1) 
InChI=1S/C18H40O4P2/c1-5-19-9-13-23(14-10-20-6-2)17-18-24(15-11-21-7-3)16-12-22-8-4/h5-18H2,1-4H3

>  <INCHI_KEY>  (1) 
QCWJONLQSHEGEJ-UHFFFAOYSA-N

>  <JCHEM_ACCEPTOR_COUNT>  (1) 
4

>  <JCHEM_ATOM_COUNT>  (1) 
64

>  <JCHEM_AVERAGE_POLARIZABILITY>  (1) 
45.62277793995481

>  <JCHEM_BIOAVAILABILITY>  (1) 
1

>  <JCHEM_DONOR_COUNT>  (1) 
0

>  <JCHEM_FORMAL_CHARGE>  (1) 
0

>  <JCHEM_GHOSE_FILTER>  (1) 
1

>  <JCHEM_IUPAC>  (1) 
6,9-bis(2-ethoxyethyl)-3,12-dioxa-6,9-diphosphatetradecane

>  <JCHEM_LOGP>  (1) 
1.14

>  <JCHEM_MDDR_LIKE_RULE>  (1) 
0

>  <JCHEM_NUMBER_OF_RINGS>  (1) 
0

>  <JCHEM_PHYSIOLOGICAL_CHARGE>  (1) 
2

>  <JCHEM_PKA_STRONGEST_BASIC>  (1) 
8.297888550352626

>  <JCHEM_POLAR_SURFACE_AREA>  (1) 
36.92

>  <JCHEM_REFRACTIVITY>  (1) 
115.73339999999999

>  <JCHEM_ROTATABLE_BOND_COUNT>  (1) 
19

>  <JCHEM_RULE_OF_FIVE>  (1) 
1

>  <JCHEM_TRADITIONAL_IUPAC>  (1) 
tetrofosmin

>  <JCHEM_VEBER_RULE>  (1) 
0

>  <MOLECULAR_WEIGHT>  (1) 
382.462

>  <PRODUCTS>  (1) 
Myoview; Tetrofosmin

>  <SMILES>  (1) 
CCOCCP(CCOCC)CCP(CCOCC)CCOCC

$$$$
