
     RDKit          2D

119127  0  0  0  0  0  0  0  0999 V2000
   -7.2728    2.2804    0.0000 C   0  0  0  0  0  0  0  0  0  0  0  0
   -5.8798    2.5987    0.0000 C   0  0  0  0  0  0  0  0  0  0  0  0
   -6.6928   -0.3617    0.0000 C   0  0  0  0  0  0  0  0  0  0  0  0
    7.3085   -2.9859    0.0000 C   0  0  0  0  0  0  0  0  0  0  0  0
   -9.0867    0.5965    0.0000 C   0  0  0  0  0  0  0  0  0  0  0  0
    9.0867    2.9859    0.0000 C   0  0  0  0  0  0  0  0  0  0  0  0
    8.6761   -0.7723    0.0000 C   0  0  0  0  0  0  0  0  0  0  0  0
    8.9191    0.0160    0.0000 C   0  0  0  0  0  0  0  0  0  0  0  0
    7.8718   -0.9561    0.0000 C   0  0  0  0  0  0  0  0  0  0  0  0
    8.3578    0.6206    0.0000 C   0  0  0  0  0  0  0  0  0  0  0  0
    7.3105   -0.3514    0.0000 C   0  0  0  0  0  0  0  0  0  0  0  0
   -5.4478   -1.1436    0.0000 C   0  0  0  0  0  0  0  0  0  0  0  0
    1.9657    1.3659    0.0000 C   0  0  0  0  0  0  0  0  0  0  0  0
   -1.7571    2.0238    0.0000 C   0  0  0  0  0  0  0  0  0  0  0  0
    1.1408    1.3533    0.0000 C   0  0  0  0  0  0  0  0  0  0  0  0
   -2.5820    2.0113    0.0000 C   0  0  0  0  0  0  0  0  0  0  0  0
   -4.6435   -0.9598    0.0000 C   0  0  0  0  0  0  0  0  0  0  0  0
    5.1769   -1.0223    0.0000 C   0  0  0  0  0  0  0  0  0  0  0  0
    1.9874   -0.0628    0.0000 C   0  0  0  0  0  0  0  0  0  0  0  0
   -0.5089    1.3282    0.0000 C   0  0  0  0  0  0  0  0  0  0  0  0
   -1.3121   -0.1130    0.0000 C   0  0  0  0  0  0  0  0  0  0  0  0
    3.6886    1.3451    0.0000 C   0  0  0  0  0  0  0  0  0  0  0  0
    6.4400   -0.5906    0.0000 C   0  0  0  0  0  0  0  0  0  0  0  0
    6.2321   -2.0460    0.0000 C   0  0  0  0  0  0  0  0  0  0  0  0
    0.7609   -0.7960    0.0000 C   0  0  0  0  0  0  0  0  0  0  0  0
   -6.4844    2.0374    0.0000 C   0  0  0  0  0  0  0  0  0  0  0  0
   -5.8711   -0.4354    0.0000 C   0  0  0  0  0  0  0  0  0  0  0  0
    5.9653   -1.2653    0.0000 C   0  0  0  0  0  0  0  0  0  0  0  0
    7.5535    0.4369    0.0000 C   0  0  0  0  0  0  0  0  0  0  0  0
   -1.3338    1.3157    0.0000 C   0  0  0  0  0  0  0  0  0  0  0  0
    2.3890    0.6578    0.0000 C   0  0  0  0  0  0  0  0  0  0  0  0
    1.1625   -0.0753    0.0000 C   0  0  0  0  0  0  0  0  0  0  0  0
    0.7392    0.6327    0.0000 C   0  0  0  0  0  0  0  0  0  0  0  0
   -1.7354    0.5950    0.0000 C   0  0  0  0  0  0  0  0  0  0  0  0
   -0.0856    0.6201    0.0000 C   0  0  0  0  0  0  0  0  0  0  0  0
   -2.9836    1.2906    0.0000 C   0  0  0  0  0  0  0  0  0  0  0  0
    3.2139    0.6703    0.0000 C   0  0  0  0  0  0  0  0  0  0  0  0
   -4.5698   -0.1381    0.0000 C   0  0  0  0  0  0  0  0  0  0  0  0
    5.1643   -0.1974    0.0000 C   0  0  0  0  0  0  0  0  0  0  0  0
   -0.4872   -0.1004    0.0000 C   0  0  0  0  0  0  0  0  0  0  0  0
   -6.3006    1.2331    0.0000 C   0  0  0  0  0  0  0  0  0  0  0  0
    6.9922    1.0415    0.0000 C   0  0  0  0  0  0  0  0  0  0  0  0
   -2.5603    0.5825    0.0000 C   0  0  0  0  0  0  0  0  0  0  0  0
    4.4896    0.2772    0.0000 C   0  0  0  0  0  0  0  0  0  0  0  0
   -3.8617    0.2851    0.0000 C   0  0  0  0  0  0  0  0  0  0  0  0
    6.1880    0.8577    0.0000 C   0  0  0  0  0  0  0  0  0  0  0  0
   -5.5122    0.9901    0.0000 C   0  0  0  0  0  0  0  0  0  0  0  0
   -7.6937    0.9148    0.0000 C   0  0  0  0  0  0  0  0  0  0  0  0
    8.0395    2.0137    0.0000 C   0  0  0  0  0  0  0  0  0  0  0  0
    4.4770    1.1021    0.0000 N   0  0  0  0  0  0  0  0  0  0  0  0
   -3.7879    1.1068    0.0000 N   0  0  0  0  0  0  0  0  0  0  0  0
    3.7089    0.0103    0.0000 N   0  0  0  0  0  0  0  0  0  0  0  0
   -3.1030   -0.0388    0.0000 N   0  0  0  0  0  0  0  0  0  0  0  0
   -6.9053    0.6718    0.0000 N   0  0  0  0  0  0  0  0  0  0  0  0
    7.2352    1.8299    0.0000 N   0  0  0  0  0  0  0  0  0  0  0  0
    5.9450    0.0693    0.0000 N   0  0  0  0  0  0  0  0  0  0  0  0
   -5.3285    0.1859    0.0000 N   0  0  0  0  0  0  0  0  0  0  0  0
    5.6267    1.4623    0.0000 O   0  0  0  0  0  0  0  0  0  0  0  0
   -4.9076    1.5514    0.0000 O   0  0  0  0  0  0  0  0  0  0  0  0
   -7.8775    1.7191    0.0000 O   0  0  0  0  0  0  0  0  0  0  0  0
    8.6008    1.4090    0.0000 O   0  0  0  0  0  0  0  0  0  0  0  0
    7.0416   -2.2052    0.0000 O   0  0  0  0  0  0  0  0  0  0  0  0
   -8.2983    0.3535    0.0000 O   0  0  0  0  0  0  0  0  0  0  0  0
    8.2824    2.8021    0.0000 O   0  0  0  0  0  0  0  0  0  0  0  0
   -0.0639   -0.8085    0.0000 O   0  0  0  0  0  0  0  0  0  0  0  0
    0.0000    0.0000    0.0000 H   0  0  0  0  0  0  0  0  0  0  0  0
    0.0000    0.0000    0.0000 H   0  0  0  0  0  0  0  0  0  0  0  0
    0.0000    0.0000    0.0000 H   0  0  0  0  0  0  0  0  0  0  0  0
    0.0000    0.0000    0.0000 H   0  0  0  0  0  0  0  0  0  0  0  0
    0.0000    0.0000    0.0000 H   0  0  0  0  0  0  0  0  0  0  0  0
    0.0000    0.0000    0.0000 H   0  0  0  0  0  0  0  0  0  0  0  0
    0.0000    0.0000    0.0000 H   0  0  0  0  0  0  0  0  0  0  0  0
    0.0000    0.0000    0.0000 H   0  0  0  0  0  0  0  0  0  0  0  0
    0.0000    0.0000    0.0000 H   0  0  0  0  0  0  0  0  0  0  0  0
    0.0000    0.0000    0.0000 H   0  0  0  0  0  0  0  0  0  0  0  0
    0.0000    0.0000    0.0000 H   0  0  0  0  0  0  0  0  0  0  0  0
    0.0000    0.0000    0.0000 H   0  0  0  0  0  0  0  0  0  0  0  0
    0.0000    0.0000    0.0000 H   0  0  0  0  0  0  0  0  0  0  0  0
    0.0000    0.0000    0.0000 H   0  0  0  0  0  0  0  0  0  0  0  0
    0.0000    0.0000    0.0000 H   0  0  0  0  0  0  0  0  0  0  0  0
    0.0000    0.0000    0.0000 H   0  0  0  0  0  0  0  0  0  0  0  0
    0.0000    0.0000    0.0000 H   0  0  0  0  0  0  0  0  0  0  0  0
    0.0000    0.0000    0.0000 H   0  0  0  0  0  0  0  0  0  0  0  0
    0.0000    0.0000    0.0000 H   0  0  0  0  0  0  0  0  0  0  0  0
    0.0000    0.0000    0.0000 H   0  0  0  0  0  0  0  0  0  0  0  0
    0.0000    0.0000    0.0000 H   0  0  0  0  0  0  0  0  0  0  0  0
    0.0000    0.0000    0.0000 H   0  0  0  0  0  0  0  0  0  0  0  0
    0.0000    0.0000    0.0000 H   0  0  0  0  0  0  0  0  0  0  0  0
    0.0000    0.0000    0.0000 H   0  0  0  0  0  0  0  0  0  0  0  0
    0.0000    0.0000    0.0000 H   0  0  0  0  0  0  0  0  0  0  0  0
    0.0000    0.0000    0.0000 H   0  0  0  0  0  0  0  0  0  0  0  0
    0.0000    0.0000    0.0000 H   0  0  0  0  0  0  0  0  0  0  0  0
    0.0000    0.0000    0.0000 H   0  0  0  0  0  0  0  0  0  0  0  0
    0.0000    0.0000    0.0000 H   0  0  0  0  0  0  0  0  0  0  0  0
    0.0000    0.0000    0.0000 H   0  0  0  0  0  0  0  0  0  0  0  0
    0.0000    0.0000    0.0000 H   0  0  0  0  0  0  0  0  0  0  0  0
    0.0000    0.0000    0.0000 H   0  0  0  0  0  0  0  0  0  0  0  0
    0.0000    0.0000    0.0000 H   0  0  0  0  0  0  0  0  0  0  0  0
    0.0000    0.0000    0.0000 H   0  0  0  0  0  0  0  0  0  0  0  0
    0.0000    0.0000    0.0000 H   0  0  0  0  0  0  0  0  0  0  0  0
    0.0000    0.0000    0.0000 H   0  0  0  0  0  0  0  0  0  0  0  0
    0.0000    0.0000    0.0000 H   0  0  0  0  0  0  0  0  0  0  0  0
    0.0000    0.0000    0.0000 H   0  0  0  0  0  0  0  0  0  0  0  0
    0.0000    0.0000    0.0000 H   0  0  0  0  0  0  0  0  0  0  0  0
    0.0000    0.0000    0.0000 H   0  0  0  0  0  0  0  0  0  0  0  0
    0.0000    0.0000    0.0000 H   0  0  0  0  0  0  0  0  0  0  0  0
    0.0000    0.0000    0.0000 H   0  0  0  0  0  0  0  0  0  0  0  0
    0.0000    0.0000    0.0000 H   0  0  0  0  0  0  0  0  0  0  0  0
    0.0000    0.0000    0.0000 H   0  0  0  0  0  0  0  0  0  0  0  0
    0.0000    0.0000    0.0000 H   0  0  0  0  0  0  0  0  0  0  0  0
    0.0000    0.0000    0.0000 H   0  0  0  0  0  0  0  0  0  0  0  0
    0.0000    0.0000    0.0000 H   0  0  0  0  0  0  0  0  0  0  0  0
    0.0000    0.0000    0.0000 H   0  0  0  0  0  0  0  0  0  0  0  0
    0.0000    0.0000    0.0000 H   0  0  0  0  0  0  0  0  0  0  0  0
    0.0000    0.0000    0.0000 H   0  0  0  0  0  0  0  0  0  0  0  0
    0.0000    0.0000    0.0000 H   0  0  0  0  0  0  0  0  0  0  0  0
    0.0000    0.0000    0.0000 H   0  0  0  0  0  0  0  0  0  0  0  0
    0.0000    0.0000    0.0000 H   0  0  0  0  0  0  0  0  0  0  0  0
    0.0000    0.0000    0.0000 H   0  0  0  0  0  0  0  0  0  0  0  0
  8  7  2  0
  9  7  1  0
 10  8  1  0
 11  9  2  0
 15 13  2  0
 16 14  1  0
 17 12  1  0
 26  1  1  0
 26  2  1  0
 27  3  1  1
 27 12  1  0
 28 18  1  0
 28 23  1  0
 28 24  1  1
 29 10  2  0
 29 11  1  0
 30 14  2  0
 30 20  1  0
 31 13  1  0
 31 19  2  0
 32 19  1  0
 32 25  1  0
 33 15  1  0
 33 32  2  0
 34 21  1  0
 34 30  1  0
 35 20  2  0
 35 33  1  0
 36 16  2  0
 37 22  2  0
 37 31  1  0
 38 17  1  0
 39 18  1  0
 40 21  2  0
 40 35  1  0
 41 26  1  1
 42 29  1  1
 43 34  2  0
 43 36  1  0
 39 44  1  1
 38 45  1  6
 46 42  1  0
 47 41  1  0
 50 22  1  0
 50 44  2  0
 51 36  1  0
 51 45  2  0
 52 37  1  0
 52 44  1  0
 53 43  1  0
 53 45  1  0
 41 54  1  0
 54 48  2  3
 42 55  1  0
 55 49  2  3
 56 23  1  0
 56 39  1  0
 56 46  1  0
 57 27  1  0
 57 38  1  0
 57 47  1  0
 58 46  2  0
 59 47  2  0
 48 60  1  0
 49 61  1  0
 62  4  1  0
 62 24  1  0
 63  5  1  0
 63 48  1  0
 64  6  1  0
 64 49  1  0
 65 25  1  0
 65 40  1  0
  1 66  1  0
  1 67  1  0
  1 68  1  0
  2 69  1  0
  2 70  1  0
  2 71  1  0
  3 72  1  0
  3 73  1  0
  3 74  1  0
  4 75  1  0
  4 76  1  0
  4 77  1  0
  5 78  1  0
  5 79  1  0
  5 80  1  0
  6 81  1  0
  6 82  1  0
  6 83  1  0
  7 84  1  0
  8 85  1  0
  9 86  1  0
 10 87  1  0
 11 88  1  0
 12 89  1  0
 12 90  1  0
 13 91  1  0
 14 92  1  0
 15 93  1  0
 16 94  1  0
 17 95  1  0
 17 96  1  0
 18 97  1  0
 18 98  1  0
 19 99  1  0
 20100  1  0
 21101  1  0
 22102  1  0
 23103  1  0
 23104  1  0
 24105  1  0
 24106  1  0
 25107  1  0
 25108  1  0
 26109  1  0
 27110  1  0
 28111  1  0
 38112  1  0
 39113  1  0
 41114  1  0
 42115  1  0
 52116  1  0
 53117  1  0
 60118  1  0
 61119  1  0
M  END
>  <ALOGPS_LOGP>  (1) 
5.65

>  <ALOGPS_LOGS>  (1) 
-5.76

>  <ALOGPS_SOLUBILITY>  (1) 
1.53e-03 g/l

>  <DATABASE_ID>  (1) 
DB11613

>  <DATABASE_NAME>  (1) 
drugbank

>  <DRUGBANK_ID>  (1) 
DB11613

>  <DRUG_GROUPS>  (1) 
approved

>  <EXACT_MASS>  (1) 
882.406460731

>  <FORMULA>  (1) 
C49H54N8O8

>  <GENERIC_NAME>  (1) 
Velpatasvir

>  <INCHI_IDENTIFIER>  (1) 
InChI=1S/C49H54N8O8/c1-26(2)41(54-48(60)63-5)47(59)57-27(3)12-17-38(57)45-51-36-16-14-30-20-35-33-15-13-31(19-32(33)25-65-40(35)21-34(30)43(36)53-45)37-22-50-44(52-37)39-18-28(24-62-4)23-56(39)46(58)42(55-49(61)64-6)29-10-8-7-9-11-29/h7-11,13-16,19-22,26-28,38-39,41-42H,12,17-18,23-25H2,1-6H3,(H,50,52)(H,51,53)(H,54,60)(H,55,61)/t27-,28-,38-,39-,41-,42+/m0/s1

>  <INCHI_KEY>  (1) 
FHCUMDQMBHQXKK-CDIODLITSA-N

>  <JCHEM_ACCEPTOR_COUNT>  (1) 
12

>  <JCHEM_ATOM_COUNT>  (1) 
119

>  <JCHEM_AVERAGE_POLARIZABILITY>  (1) 
97.90565735874323

>  <JCHEM_BIOAVAILABILITY>  (1) 
0

>  <JCHEM_DONOR_COUNT>  (1) 
4

>  <JCHEM_FORMAL_CHARGE>  (1) 
0

>  <JCHEM_GHOSE_FILTER>  (1) 
0

>  <JCHEM_IUPAC>  (1) 
(2S)-2-{[hydroxy(methoxy)methylidene]amino}-1-[(2S,5S)-2-(17-{2-[(2S,4S)-1-[(2R)-2-{[hydroxy(methoxy)methylidene]amino}-2-phenylacetyl]-4-(methoxymethyl)pyrrolidin-2-yl]-1H-imidazol-5-yl}-21-oxa-5,7-diazapentacyclo[11.8.0.0^{3,11}.0^{4,8}.0^{14,19}]henicosa-1(13),2,4(8),6,9,11,14(19),15,17-nonaen-6-yl)-5-methylpyrrolidin-1-yl]-3-methylbutan-1-one

>  <JCHEM_LOGP>  (1) 
4.263186919280243

>  <JCHEM_MDDR_LIKE_RULE>  (1) 
1

>  <JCHEM_NUMBER_OF_RINGS>  (1) 
9

>  <JCHEM_PHYSIOLOGICAL_CHARGE>  (1) 
0

>  <JCHEM_PKA>  (1) 
4.361515389250819

>  <JCHEM_PKA_STRONGEST_ACIDIC>  (1) 
3.735922827197583

>  <JCHEM_PKA_STRONGEST_BASIC>  (1) 
5.978985408270395

>  <JCHEM_POLAR_SURFACE_AREA>  (1) 
200.07999999999993

>  <JCHEM_REFRACTIVITY>  (1) 
242.1499000000001

>  <JCHEM_ROTATABLE_BOND_COUNT>  (1) 
13

>  <JCHEM_RULE_OF_FIVE>  (1) 
0

>  <JCHEM_TRADITIONAL_IUPAC>  (1) 
(2S)-2-{[hydroxy(methoxy)methylidene]amino}-1-[(2S,5S)-2-(17-{2-[(2S,4S)-1-[(2R)-2-{[hydroxy(methoxy)methylidene]amino}-2-phenylacetyl]-4-(methoxymethyl)pyrrolidin-2-yl]-3H-imidazol-4-yl}-21-oxa-5,7-diazapentacyclo[11.8.0.0^{3,11}.0^{4,8}.0^{14,19}]henicosa-1(13),2,4(8),6,9,11,14(19),15,17-nonaen-6-yl)-5-methylpyrrolidin-1-yl]-3-methylbutan-1-one

>  <JCHEM_VEBER_RULE>  (1) 
0

>  <MOLECULAR_WEIGHT>  (1) 
883.019

>  <PRODUCTS>  (1) 
Epclusa; Vosevi

>  <SMILES>  (1) 
[H][C@](N=C(O)OC)(C(C)C)C(=O)N1[C@@]([H])(C)CC[C@@]1([H])C1=NC2=C(N1)C1=CC3=C(C=C1C=C2)C1=C(CO3)C=C(C=C1)C1=CN=C(N1)[C@]1([H])C[C@]([H])(COC)CN1C(=O)[C@]([H])(N=C(O)OC)C1=CC=CC=C1

>  <SYNONYMS>  (1) 
methyl {(2S)-1-[(2S,5S)-2-(9-{2-[(2S,4S)-1-{(2R)-2-[(methoxycarbonyl)amino]-2-phenylacetyl}-4-(methoxymethyl)pyrrolidin-2-yl]-1H-imidazol-4-yl}-1,11-dihydro[2]benzopyrano[4',3':6,7]naphtho[1,2-d]imidazol-2-yl)-5-methylpyrrolidin-1-yl]-3-methyl-1-oxobutan-2-yl}carbamate

$$$$
