
     RDKit          2D

 73 32  0  0  0  0  0  0  0  0999 V2000
    0.4125    0.0000    0.0000 N   0  0  0  0  0  0  0  0  0  0  0  0
    3.5946    0.0000    0.0000 N   0  0  0  0  0  0  0  0  0  0  0  0
    6.7768    0.0000    0.0000 N   0  0  0  0  0  0  0  0  0  0  0  0
    9.9589    0.0000    0.0000 N   0  0  0  0  0  0  0  0  0  0  0  0
   13.1411    0.0000    0.0000 N   0  0  0  0  0  0  0  0  0  0  0  0
   16.3232    0.0000    0.0000 N   0  0  0  0  0  0  0  0  0  0  0  0
    0.0000   -1.6500    0.0000 O   0  0  0  0  0  0  0  0  0  0  0  0
    2.3571   -1.6500    0.0000 O   0  0  0  0  0  0  0  0  0  0  0  0
    4.7143   -1.6500    0.0000 O   0  0  0  0  0  0  0  0  0  0  0  0
    7.0714   -1.6500    0.0000 O   0  0  0  0  0  0  0  0  0  0  0  0
   -0.4125    0.0000    0.0000 O   0  0  0  0  0  0  0  0  0  0  0  0
    2.7696    0.0000    0.0000 O   0  0  0  0  0  0  0  0  0  0  0  0
    5.9518    0.0000    0.0000 O   0  0  0  0  0  0  0  0  0  0  0  0
    9.1339    0.0000    0.0000 O   0  0  0  0  0  0  0  0  0  0  0  0
   12.3161    0.0000    0.0000 O   0  0  0  0  0  0  0  0  0  0  0  0
   15.4982    0.0000    0.0000 O   0  0  0  0  0  0  0  0  0  0  0  0
   10.3714   -1.6500    0.0000 O   0  0  0  0  0  0  0  0  0  0  0  0
   13.6714   -1.6500    0.0000 O   0  0  0  0  0  0  0  0  0  0  0  0
    0.4125   -3.3000    0.0000 O   0  0  0  0  0  0  0  0  0  0  0  0
    3.7125   -3.3000    0.0000 O   0  0  0  0  0  0  0  0  0  0  0  0
    7.0125   -3.3000    0.0000 O   0  0  0  0  0  0  0  0  0  0  0  0
   10.3125   -3.3000    0.0000 O   0  0  0  0  0  0  0  0  0  0  0  0
   13.6125   -3.3000    0.0000 O   0  0  0  0  0  0  0  0  0  0  0  0
   15.9696   -3.3000    0.0000 O   0  0  0  0  0  0  0  0  0  0  0  0
    0.0000   -4.9500    0.0000 O   0  0  0  0  0  0  0  0  0  0  0  0
    1.1196   -4.9500    0.0000 O   0  0  0  0  0  0  0  0  0  0  0  0
    2.2393   -4.9500    0.0000 O   0  0  0  0  0  0  0  0  0  0  0  0
    3.3589   -4.9500    0.0000 O   0  0  0  0  0  0  0  0  0  0  0  0
    4.4786   -4.9500    0.0000 O   0  0  0  0  0  0  0  0  0  0  0  0
    5.5982   -4.9500    0.0000 O   0  0  0  0  0  0  0  0  0  0  0  0
    0.0000   -6.6000    0.0000 O   0  0  0  0  0  0  0  0  0  0  0  0
    1.1196   -6.6000    0.0000 O   0  0  0  0  0  0  0  0  0  0  0  0
    2.2393   -6.6000    0.0000 O   0  0  0  0  0  0  0  0  0  0  0  0
    3.3589   -6.6000    0.0000 O   0  0  0  0  0  0  0  0  0  0  0  0
    9.5464   -1.6500    0.0000 Mo  0  0  0  0  0  0  0  0  0  0  0  0
   12.8464   -1.6500    0.0000 Mo  0  0  0  0  0  0  0  0  0  0  0  0
   -0.4125   -3.3000    0.0000 Mo  0  0  0  0  0  0  0  0  0  0  0  0
    2.8875   -3.3000    0.0000 Mo  0  0  0  0  0  0  0  0  0  0  0  0
    6.1875   -3.3000    0.0000 Mo  0  0  0  0  0  0  0  0  0  0  0  0
    9.4875   -3.3000    0.0000 Mo  0  0  0  0  0  0  0  0  0  0  0  0
   12.7875   -3.3000    0.0000 Mo  0  0  0  0  0  0  0  0  0  0  0  0
    0.0000    0.0000    0.0000 H   0  0  0  0  0  0  0  0  0  0  0  0
    0.0000    0.0000    0.0000 H   0  0  0  0  0  0  0  0  0  0  0  0
    0.0000    0.0000    0.0000 H   0  0  0  0  0  0  0  0  0  0  0  0
    0.0000    0.0000    0.0000 H   0  0  0  0  0  0  0  0  0  0  0  0
    0.0000    0.0000    0.0000 H   0  0  0  0  0  0  0  0  0  0  0  0
    0.0000    0.0000    0.0000 H   0  0  0  0  0  0  0  0  0  0  0  0
    0.0000    0.0000    0.0000 H   0  0  0  0  0  0  0  0  0  0  0  0
    0.0000    0.0000    0.0000 H   0  0  0  0  0  0  0  0  0  0  0  0
    0.0000    0.0000    0.0000 H   0  0  0  0  0  0  0  0  0  0  0  0
    0.0000    0.0000    0.0000 H   0  0  0  0  0  0  0  0  0  0  0  0
    0.0000    0.0000    0.0000 H   0  0  0  0  0  0  0  0  0  0  0  0
    0.0000    0.0000    0.0000 H   0  0  0  0  0  0  0  0  0  0  0  0
    0.0000    0.0000    0.0000 H   0  0  0  0  0  0  0  0  0  0  0  0
    0.0000    0.0000    0.0000 H   0  0  0  0  0  0  0  0  0  0  0  0
    0.0000    0.0000    0.0000 H   0  0  0  0  0  0  0  0  0  0  0  0
    0.0000    0.0000    0.0000 H   0  0  0  0  0  0  0  0  0  0  0  0
    0.0000    0.0000    0.0000 H   0  0  0  0  0  0  0  0  0  0  0  0
    0.0000    0.0000    0.0000 H   0  0  0  0  0  0  0  0  0  0  0  0
    0.0000    0.0000    0.0000 H   0  0  0  0  0  0  0  0  0  0  0  0
    0.0000    0.0000    0.0000 H   0  0  0  0  0  0  0  0  0  0  0  0
    0.0000    0.0000    0.0000 H   0  0  0  0  0  0  0  0  0  0  0  0
    0.0000    0.0000    0.0000 H   0  0  0  0  0  0  0  0  0  0  0  0
    0.0000    0.0000    0.0000 H   0  0  0  0  0  0  0  0  0  0  0  0
    0.0000    0.0000    0.0000 H   0  0  0  0  0  0  0  0  0  0  0  0
    0.0000    0.0000    0.0000 H   0  0  0  0  0  0  0  0  0  0  0  0
    0.0000    0.0000    0.0000 H   0  0  0  0  0  0  0  0  0  0  0  0
    0.0000    0.0000    0.0000 H   0  0  0  0  0  0  0  0  0  0  0  0
    0.0000    0.0000    0.0000 H   0  0  0  0  0  0  0  0  0  0  0  0
    0.0000    0.0000    0.0000 H   0  0  0  0  0  0  0  0  0  0  0  0
    0.0000    0.0000    0.0000 H   0  0  0  0  0  0  0  0  0  0  0  0
    0.0000    0.0000    0.0000 H   0  0  0  0  0  0  0  0  0  0  0  0
    0.0000    0.0000    0.0000 H   0  0  0  0  0  0  0  0  0  0  0  0
  1 42  1  0
  1 43  1  0
  1 44  1  0
  1 45  1  0
  2 46  1  0
  2 47  1  0
  2 48  1  0
  2 49  1  0
  3 50  1  0
  3 51  1  0
  3 52  1  0
  3 53  1  0
  4 54  1  0
  4 55  1  0
  4 56  1  0
  4 57  1  0
  5 58  1  0
  5 59  1  0
  5 60  1  0
  5 61  1  0
  6 62  1  0
  6 63  1  0
  6 64  1  0
  6 65  1  0
  7 66  1  0
  7 67  1  0
  8 68  1  0
  8 69  1  0
  9 70  1  0
  9 71  1  0
 10 72  1  0
 10 73  1  0
M  CHG  8   1   1   2   1   3   1   4   1   5   1   6   1  11  -2  12  -2
M  CHG  8  13  -2  14  -2  15  -2  16  -2  17  -2  18  -2  19  -2  20  -2
M  CHG  8  21  -2  22  -2  23  -2  24  -2  25  -2  26  -2  27  -2  28  -2
M  CHG  8  29  -2  30  -2  31  -2  32  -2  33  -2  34  -2  35   6  36   6
M  CHG  5  37   6  38   6  39   6  40   6  41   6
M  END
>  <DATABASE_ID>  (1) 
DB11128

>  <DATABASE_NAME>  (1) 
drugbank

>  <DRUGBANK_ID>  (1) 
DB11128

>  <DRUG_GROUPS>  (1) 
approved

>  <EXACT_MASS>  (1) 
1249.464289

>  <FORMULA>  (1) 
H32Mo7N6O28

>  <GENERIC_NAME>  (1) 
Ammonium molybdate

>  <INCHI_IDENTIFIER>  (1) 
InChI=1S/7Mo.6H3N.4H2O.24O/h;;;;;;;6*1H3;4*1H2;;;;;;;;;;;;;;;;;;;;;;;;/q7*+6;;;;;;;;;;;24*-2/p+6

>  <INCHI_KEY>  (1) 
FZDJSHPVOMNEIF-UHFFFAOYSA-T

>  <JCHEM_ACCEPTOR_COUNT>  (1) 
0

>  <JCHEM_ATOM_COUNT>  (1) 
73

>  <JCHEM_AVERAGE_POLARIZABILITY>  (1) 
2.380178155685953

>  <JCHEM_BIOAVAILABILITY>  (1) 
1

>  <JCHEM_DONOR_COUNT>  (1) 
1

>  <JCHEM_FORMAL_CHARGE>  (1) 
0

>  <JCHEM_GHOSE_FILTER>  (1) 
0

>  <JCHEM_IUPAC>  (1) 
heptamolybdenum(6+) ion hexaammonium tetrahydrate tetracosaoxidandiide

>  <JCHEM_LOGP>  (1) 
-0.9779999999999999

>  <JCHEM_MDDR_LIKE_RULE>  (1) 
0

>  <JCHEM_NUMBER_OF_RINGS>  (1) 
0

>  <JCHEM_PHYSIOLOGICAL_CHARGE>  (1) 
1

>  <JCHEM_PKA_STRONGEST_BASIC>  (1) 
8.861981369487705

>  <JCHEM_POLAR_SURFACE_AREA>  (1) 
0.0

>  <JCHEM_REFRACTIVITY>  (1) 
16.3149

>  <JCHEM_ROTATABLE_BOND_COUNT>  (1) 
0

>  <JCHEM_RULE_OF_FIVE>  (1) 
0

>  <JCHEM_TRADITIONAL_IUPAC>  (1) 
heptamolybdenum(6+) ion hexaammonium tetrahydrate tetracosaoxidandiide

>  <JCHEM_VEBER_RULE>  (1) 
1

>  <MOLECULAR_WEIGHT>  (1) 
1235.92

>  <PRODUCTS>  (1) 
Ammonium Molybdate

>  <SMILES>  (1) 
[NH4+].[NH4+].[NH4+].[NH4+].[NH4+].[NH4+].O.O.O.O.[O--].[O--].[O--].[O--].[O--].[O--].[O--].[O--].[O--].[O--].[O--].[O--].[O--].[O--].[O--].[O--].[O--].[O--].[O--].[O--].[O--].[O--].[O--].[O--].[Mo+6].[Mo+6].[Mo+6].[Mo+6].[Mo+6].[Mo+6].[Mo+6]

$$$$
