
     RDKit          2D

 31 32  0  0  0  0  0  0  0  0999 V2000
    5.8225    4.7652    0.0000 C   0  0  0  0  0  0  0  0  0  0  0  0
    5.8225    5.5902    0.0000 C   0  0  0  0  0  0  0  0  0  0  0  0
    5.1080    4.3527    0.0000 C   0  0  0  0  0  0  0  0  0  0  0  0
    5.1080    6.0027    0.0000 C   0  0  0  0  0  0  0  0  0  0  0  0
    4.3935    4.7652    0.0000 C   0  0  0  0  0  0  0  0  0  0  0  0
    1.9481    3.4956    0.0000 C   0  0  0  0  0  0  0  0  0  0  0  0
    2.2031    4.2803    0.0000 C   0  0  0  0  0  0  0  0  0  0  0  0
    3.6791    6.0027    0.0000 C   0  0  0  0  0  0  0  0  0  0  0  0
    1.5356    5.5902    0.0000 C   0  0  0  0  0  0  0  0  0  0  0  0
    4.3935    5.5902    0.0000 C   0  0  0  0  0  0  0  0  0  0  0  0
    2.2501    6.0027    0.0000 C   0  0  0  0  0  0  0  0  0  0  0  0
    0.8682    4.2803    0.0000 C   0  0  0  0  0  0  0  0  0  0  0  0
    1.1231    3.4956    0.0000 N   0  0  0  0  0  0  0  0  0  0  0  0
    2.9646    5.5902    0.0000 N   0  0  0  0  0  0  0  0  0  0  0  0
    1.5356    4.7652    0.0000 N   0  0  0  0  0  0  0  0  0  0  0  0
    0.0836    4.5352    0.0000 N   0  0  0  0  0  0  0  0  0  0  0  0
    2.2501    6.8277    0.0000 O   0  0  0  0  0  0  0  0  0  0  0  0
   -0.5295    3.9832    0.0000 O   0  0  0  0  0  0  0  0  0  0  0  0
   -0.0879    5.3422    0.0000 O   0  0  0  0  0  0  0  0  0  0  0  0
    0.0000    0.0000    0.0000 H   0  0  0  0  0  0  0  0  0  0  0  0
    0.0000    0.0000    0.0000 H   0  0  0  0  0  0  0  0  0  0  0  0
    0.0000    0.0000    0.0000 H   0  0  0  0  0  0  0  0  0  0  0  0
    0.0000    0.0000    0.0000 H   0  0  0  0  0  0  0  0  0  0  0  0
    0.0000    0.0000    0.0000 H   0  0  0  0  0  0  0  0  0  0  0  0
    0.0000    0.0000    0.0000 H   0  0  0  0  0  0  0  0  0  0  0  0
    0.0000    0.0000    0.0000 H   0  0  0  0  0  0  0  0  0  0  0  0
    0.0000    0.0000    0.0000 H   0  0  0  0  0  0  0  0  0  0  0  0
    0.0000    0.0000    0.0000 H   0  0  0  0  0  0  0  0  0  0  0  0
    0.0000    0.0000    0.0000 H   0  0  0  0  0  0  0  0  0  0  0  0
    0.0000    0.0000    0.0000 H   0  0  0  0  0  0  0  0  0  0  0  0
    0.0000    0.0000    0.0000 H   0  0  0  0  0  0  0  0  0  0  0  0
  2  1  2  0
  3  1  1  0
  4  2  1  0
  5  3  2  0
  7  6  2  0
 10  4  2  0
 10  5  1  0
 10  8  1  0
 11  9  1  0
 13  6  1  0
 13 12  2  0
 14  8  1  0
 14 11  2  3
 15  7  1  0
 15  9  1  0
 15 12  1  0
 16 12  1  0
 17 11  1  0
 18 16  1  0
 19 16  2  0
  1 20  1  0
  2 21  1  0
  3 22  1  0
  4 23  1  0
  5 24  1  0
  6 25  1  0
  7 26  1  0
  8 27  1  0
  8 28  1  0
  9 29  1  0
  9 30  1  0
 17 31  1  0
M  CHG  2  16   1  18  -1
M  END
>  <ALOGPS_LOGP>  (1) 
1.32

>  <ALOGPS_LOGS>  (1) 
-2.93

>  <ALOGPS_SOLUBILITY>  (1) 
3.06e-01 g/l

>  <DATABASE_ID>  (1) 
DB11989

>  <DATABASE_NAME>  (1) 
drugbank

>  <DRUGBANK_ID>  (1) 
DB11989

>  <DRUG_GROUPS>  (1) 
approved; investigational

>  <EXACT_MASS>  (1) 
260.090940262

>  <FORMULA>  (1) 
C12H12N4O3

>  <GENERIC_NAME>  (1) 
Benznidazole

>  <INCHI_IDENTIFIER>  (1) 
InChI=1S/C12H12N4O3/c17-11(14-8-10-4-2-1-3-5-10)9-15-7-6-13-12(15)16(18)19/h1-7H,8-9H2,(H,14,17)

>  <INCHI_KEY>  (1) 
CULUWZNBISUWAS-UHFFFAOYSA-N

>  <JCHEM_ACCEPTOR_COUNT>  (1) 
5

>  <JCHEM_ATOM_COUNT>  (1) 
31

>  <JCHEM_AVERAGE_POLARIZABILITY>  (1) 
25.161619943461424

>  <JCHEM_BIOAVAILABILITY>  (1) 
1

>  <JCHEM_DONOR_COUNT>  (1) 
1

>  <JCHEM_FORMAL_CHARGE>  (1) 
0

>  <JCHEM_GHOSE_FILTER>  (1) 
1

>  <JCHEM_IUPAC>  (1) 
N-benzyl-2-(2-nitro-1H-imidazol-1-yl)ethanimidic acid

>  <JCHEM_LOGP>  (1) 
1.6359669631792426

>  <JCHEM_MDDR_LIKE_RULE>  (1) 
0

>  <JCHEM_NUMBER_OF_RINGS>  (1) 
2

>  <JCHEM_PHYSIOLOGICAL_CHARGE>  (1) 
0

>  <JCHEM_PKA_STRONGEST_ACIDIC>  (1) 
2.282089684658118

>  <JCHEM_PKA_STRONGEST_BASIC>  (1) 
4.366230941720082

>  <JCHEM_POLAR_SURFACE_AREA>  (1) 
96.22999999999999

>  <JCHEM_REFRACTIVITY>  (1) 
68.64529999999999

>  <JCHEM_ROTATABLE_BOND_COUNT>  (1) 
5

>  <JCHEM_RULE_OF_FIVE>  (1) 
1

>  <JCHEM_TRADITIONAL_IUPAC>  (1) 
benznidazole

>  <JCHEM_VEBER_RULE>  (1) 
0

>  <MOLECULAR_WEIGHT>  (1) 
260.253

>  <SMILES>  (1) 
OC(CN1C=CN=C1N(=O)=O)=NCC1=CC=CC=C1

$$$$
