
     RDKit          2D

 41 43  0  0  0  0  0  0  0  0999 V2000
    0.4616   -2.9253    0.0000 C   0  0  0  0  0  0  0  0  0  0  0  0
   -1.0171    2.1198    0.0000 C   0  0  0  0  0  0  0  0  0  0  0  0
   -1.2198    0.3651    0.0000 C   0  0  0  0  0  0  0  0  0  0  0  0
   -0.5788    2.9253    0.0000 C   0  0  0  0  0  0  0  0  0  0  0  0
    1.2807   -1.7545    0.0000 C   0  0  0  0  0  0  0  0  0  0  0  0
   -0.1427   -1.6305    0.0000 C   0  0  0  0  0  0  0  0  0  0  0  0
    1.3523   -0.9326    0.0000 C   0  0  0  0  0  0  0  0  0  0  0  0
   -0.0712   -0.8087    0.0000 C   0  0  0  0  0  0  0  0  0  0  0  0
   -1.4671    0.7777    0.0000 C   0  0  0  0  0  0  0  0  0  0  0  0
   -1.4671    1.6027    0.0000 C   0  0  0  0  0  0  0  0  0  0  0  0
    0.7514    0.4036    0.0000 C   0  0  0  0  0  0  0  0  0  0  0  0
    0.5332   -2.1035    0.0000 C   0  0  0  0  0  0  0  0  0  0  0  0
    0.6763   -0.4597    0.0000 C   0  0  0  0  0  0  0  0  0  0  0  0
   -0.0381    0.7777    0.0000 C   0  0  0  0  0  0  0  0  0  0  0  0
   -0.7526    0.3652    0.0000 C   0  0  0  0  0  0  0  0  0  0  0  0
   -0.0381    1.6027    0.0000 C   0  0  0  0  0  0  0  0  0  0  0  0
   -0.5463    1.1902    0.0000 C   0  0  0  0  0  0  0  0  0  0  0  0
   -0.7526    2.0152    0.0000 C   0  0  0  0  0  0  0  0  0  0  0  0
    0.7396    2.0338    0.0000 O   0  0  0  0  0  0  0  0  0  0  0  0
    0.0000    0.0000    0.0000 H   0  0  0  0  0  0  0  0  0  0  0  0
    0.0000    0.0000    0.0000 H   0  0  0  0  0  0  0  0  0  0  0  0
    0.0000    0.0000    0.0000 H   0  0  0  0  0  0  0  0  0  0  0  0
    0.0000    0.0000    0.0000 H   0  0  0  0  0  0  0  0  0  0  0  0
    0.0000    0.0000    0.0000 H   0  0  0  0  0  0  0  0  0  0  0  0
    0.0000    0.0000    0.0000 H   0  0  0  0  0  0  0  0  0  0  0  0
    0.0000    0.0000    0.0000 H   0  0  0  0  0  0  0  0  0  0  0  0
    0.0000    0.0000    0.0000 H   0  0  0  0  0  0  0  0  0  0  0  0
    0.0000    0.0000    0.0000 H   0  0  0  0  0  0  0  0  0  0  0  0
    0.0000    0.0000    0.0000 H   0  0  0  0  0  0  0  0  0  0  0  0
    0.0000    0.0000    0.0000 H   0  0  0  0  0  0  0  0  0  0  0  0
    0.0000    0.0000    0.0000 H   0  0  0  0  0  0  0  0  0  0  0  0
    0.0000    0.0000    0.0000 H   0  0  0  0  0  0  0  0  0  0  0  0
    0.0000    0.0000    0.0000 H   0  0  0  0  0  0  0  0  0  0  0  0
    0.0000    0.0000    0.0000 H   0  0  0  0  0  0  0  0  0  0  0  0
    0.0000    0.0000    0.0000 H   0  0  0  0  0  0  0  0  0  0  0  0
    0.0000    0.0000    0.0000 H   0  0  0  0  0  0  0  0  0  0  0  0
    0.0000    0.0000    0.0000 H   0  0  0  0  0  0  0  0  0  0  0  0
    0.0000    0.0000    0.0000 H   0  0  0  0  0  0  0  0  0  0  0  0
    0.0000    0.0000    0.0000 H   0  0  0  0  0  0  0  0  0  0  0  0
    0.0000    0.0000    0.0000 H   0  0  0  0  0  0  0  0  0  0  0  0
    0.0000    0.0000    0.0000 H   0  0  0  0  0  0  0  0  0  0  0  0
  7  5  2  0
  8  6  1  0
 10  9  1  0
 12  1  1  0
 12  5  1  0
 12  6  2  0
 13  7  1  0
 13  8  2  0
 13 11  1  0
 14 11  2  0
 15  9  1  0
 15 14  1  0
 16 14  1  0
 17  2  1  0
 17  3  1  0
 17 15  1  0
 18  4  1  6
 18 10  1  0
 18 16  1  0
 18 17  1  0
 19 16  2  0
  1 20  1  0
  1 21  1  0
  1 22  1  0
  2 23  1  0
  2 24  1  0
  2 25  1  0
  3 26  1  0
  3 27  1  0
  3 28  1  0
  4 29  1  0
  4 30  1  0
  4 31  1  0
  5 32  1  0
  6 33  1  0
  7 34  1  0
  8 35  1  0
  9 36  1  0
  9 37  1  0
 10 38  1  0
 10 39  1  0
 11 40  1  0
 15 41  1  6
M  END
>  <ALOGPS_LOGP>  (1) 
5.09

>  <ALOGPS_LOGS>  (1) 
-4.70

>  <ALOGPS_SOLUBILITY>  (1) 
5.10e-03 g/l

>  <DATABASE_ID>  (1) 
DB11219

>  <DATABASE_NAME>  (1) 
drugbank

>  <DRUGBANK_ID>  (1) 
DB11219

>  <DRUG_GROUPS>  (1) 
approved

>  <EXACT_MASS>  (1) 
254.167065328

>  <FORMULA>  (1) 
C18H22O

>  <GENERIC_NAME>  (1) 
Enzacamene

>  <INCHI_IDENTIFIER>  (1) 
InChI=1S/C18H22O/c1-12-5-7-13(8-6-12)11-14-15-9-10-18(4,16(14)19)17(15,2)3/h5-8,11,15H,9-10H2,1-4H3/b14-11+/t15-,18+/m1/s1

>  <INCHI_KEY>  (1) 
HEOCBCNFKCOKBX-RELGSGGGSA-N

>  <JCHEM_ACCEPTOR_COUNT>  (1) 
1

>  <JCHEM_ATOM_COUNT>  (1) 
41

>  <JCHEM_AVERAGE_POLARIZABILITY>  (1) 
30.56560488215638

>  <JCHEM_BIOAVAILABILITY>  (1) 
1

>  <JCHEM_DONOR_COUNT>  (1) 
0

>  <JCHEM_FORMAL_CHARGE>  (1) 
0

>  <JCHEM_GHOSE_FILTER>  (1) 
1

>  <JCHEM_IUPAC>  (1) 
(1R,3E,4S)-1,7,7-trimethyl-3-[(4-methylphenyl)methylidene]bicyclo[2.2.1]heptan-2-one

>  <JCHEM_LOGP>  (1) 
5.120853596

>  <JCHEM_MDDR_LIKE_RULE>  (1) 
0

>  <JCHEM_NUMBER_OF_RINGS>  (1) 
3

>  <JCHEM_PHYSIOLOGICAL_CHARGE>  (1) 
0

>  <JCHEM_PKA_STRONGEST_BASIC>  (1) 
-5.193062107361733

>  <JCHEM_POLAR_SURFACE_AREA>  (1) 
17.07

>  <JCHEM_REFRACTIVITY>  (1) 
79.67959999999998

>  <JCHEM_ROTATABLE_BOND_COUNT>  (1) 
1

>  <JCHEM_RULE_OF_FIVE>  (1) 
0

>  <JCHEM_TRADITIONAL_IUPAC>  (1) 
(1R,3E,4S)-1,7,7-trimethyl-3-[(4-methylphenyl)methylidene]bicyclo[2.2.1]heptan-2-one

>  <JCHEM_VEBER_RULE>  (1) 
1

>  <MOLECULAR_WEIGHT>  (1) 
254.373

>  <PRODUCTS>  (1) 
Anthelios L - Ecran Intolerances Solaires SPF 60; Anthelios L-lait Ecran Intol.solaire SPF 60; Anthelios S - Ecran Solaire SPF 30; Anthelios-creme Solaire SPF 10; Anthelios-ecran Invisible SPF 20; Anthelios-lait Ecran Invisible SPF 20; Anthelios-stick Ecran SPF 30; Antherpos-ceralip Solaire SPF 50; Autobronzant Creme Fps 15; Autobronzant SPF 7; Bain De Soleil Protection Lotion SPF 15; Biokids SPF 35; Biotherm - Lait Ecran Total SPF 25; CRème Auto-bronzante Bronze Dore SPF 15; CRème Solaire Bronzage Sécurité Spécial Visage SPF 15; Conju Princess UV Sun Block; Correway Sunscreen (Waterproof); Creme Auto-bronzante Bronze Dore SPF 15; Creme Ecran Total Intolerances Solaires SPF 40; Creme Ecran Total Intolerances Solaires SPF 45; Creme Protectrice Spf15; Creme Solaire Bronzage Securite Special Visage SPF 15; Creme Solaire Ecran Special Visage SPF 30; Creme Solaire Haute Protection SPF 15; Ecran Solaire SPF 15 - Crm; Ecran Total Anti-intolerance SPF 30-crm; Ecran Total Solaire Fps 25; Gel Creme Protecteur SPF 15; Gelee Fraiche Bronz.hydratante SPF 8; Gelee Fraicheur Bronzage Eclat SPF 8; Gelée Fraîche Bronzante Hydratante Fps 8; Glamtox SPF 18; Lait Ecran Extreme SPF 60; Lait Protecteur Hydro-satinant Spf15; Lait Solaire Ecran Total SPF 25; Lait Solaire Haute Protection SPF 15; Lait écran Total SPF 25; Lancome Creme Ecran Total SPF 25; Lancome Lait Ecran Total Hydro-satin.spf25; Lancome-creme Autobronzante Visage Crm; Laser Block 100 sunblock; Lotion Sport; MediSpa SunSpray sunblock; MediSpa Sunblock sunblock; Mesoestetic Moisturizing Sun Protection Broad Spectrum for Normal and Dry Skins; Mesoestetic Sun Protection SPF 30; Moisturising Sun Protection Spf50; Natural Sun AQ Body and Family Mild Sun Milk; Natural Sun AQ Total Anti-aging Essence Sun; Nwc 21 Natural Premium Bb Cream; Ombrelle - Lotion Spf30; Ombrelle Creme Ecran SPF 60; Ombrelle Lotion SPF 30; Ombrelle Lotion SPF 30 Pour Enfants; Ombrelle-lotion Spf15; Outback 2-in-1 Insect Repellent and Protective Sunscreen; Qt Sun Block; R.P. Sol; Rejuva Moisturizing Day Cream SPF 30; Roc Minesol Protect Ultra High Protection Suncare Cream SPF 60; Sebamed SPF 25 Lip Defense; Sebamed Sun Cream SPF 16; Sebamed Sun Cream SPF 20; Sebamed Sun Cream SPF 8; Sebamed Sun Lotion SPF 16; Sebamed Sun Lotion SPF 20; Sebamed Sun Lotion SPF 8; Secret Key Natural Cc Cushion Spf50 Plus / 01 Light Cc; Secret Key Natural Cc Cushion Spf50 Plus / 02 Natural Cc; Snik - Lot; Snik Crm 6%; Snik Lotion SPF 15; Snik Lotion SPF 38; Snik Sun Milk - Crm; Soin Solaire Autobronzant SPF 8 - Crm; Soleil Protexion Velvet Moisture SPF 30; Soleil Protexion Velvet Moisture SPF 60; Sunscreen Lotion Ecran Solaire 30; Vichy Creme Ecran Total Intol.soc. SPF 30; Vichy Lait Ecran Total Intoler.sol. SPF 30; Vichy Lait Ecran Total Special Enf.SPF 25; Vichy Lait Hydratant Bronzage Progresif Spf8; Vichy Lait Protecteur SPF 15; Vichy-creme Ecran Total SPF 25; Vichy-creme Haute Protection SPF 15; Vichy-lait Ecran Total SPF 25; Écran Solaire Spécial Rides SPF 15; Écran Total Anti-intolérances Solaires Fps 30; Écran Total Solaire SPF 25

>  <SMILES>  (1) 
[H]\C(=C1/C(=O)[C@]2(C)CC[C@@]1([H])C2(C)C)C1=CC=C(C)C=C1

>  <SYNONYMS>  (1) 
4-MBC; 4-methylbenzylidene camphor

$$$$
