
     RDKit          2D

 97101  0  0  1  0  0  0  0  0999 V2000
    7.3012   -2.9583    0.0000 C   0  0  0  0  0  0  0  0  0  0  0  0
    4.6126   -5.1524    0.0000 C   0  0  0  0  0  0  0  0  0  0  0  0
    6.1199   -4.4812    0.0000 C   0  0  0  0  0  0  0  0  0  0  0  0
    5.7018   -5.5705    0.0000 C   0  0  0  0  0  0  0  0  0  0  0  0
    3.0910   -6.7329    0.0000 C   0  0  0  0  0  0  0  0  0  0  0  0
    2.9085   -5.5805    0.0000 C   0  0  0  0  0  0  0  0  0  0  0  0
    4.2433   -6.5504    0.0000 C   0  0  0  0  0  0  0  0  0  0  0  0
    4.2868    2.4750    0.0000 C   0  0  0  0  0  0  0  0  0  0  0  0
    8.0084   -2.5334    0.0000 C   0  0  0  0  0  0  0  0  0  0  0  0
    1.4289    0.8250    0.0000 C   0  0  0  0  0  0  0  0  0  0  0  0
    7.0030    2.7301    0.0000 C   0  0  0  0  0  0  0  0  0  0  0  0
    6.2615    2.3684    0.0000 C   0  0  0  0  0  0  0  0  0  0  0  0
    2.1434    1.2375    0.0000 C   0  0  0  0  0  0  0  0  0  0  0  0
    2.1434   -0.4125    0.0000 C   0  0  0  0  0  0  0  0  0  0  0  0
    5.0405   -1.3144    0.0000 C   0  0  0  0  0  0  0  0  0  0  0  0
    8.3939   -0.9870    0.0000 C   0  0  0  0  0  0  0  0  0  0  0  0
    4.2868    0.8250    0.0000 C   0  0  0  0  0  0  0  0  0  0  0  0
    4.3731   -2.4705    0.0000 C   0  0  0  0  0  0  0  0  0  0  0  0
    7.9940   -1.7086    0.0000 C   0  0  0  0  0  0  0  0  0  0  0  0
    1.4289    0.0000    0.0000 C   0  0  0  0  0  0  0  0  0  0  0  0
    4.2868   -1.6500    0.0000 C   0  0  0  0  0  0  0  0  0  0  0  0
    6.9454    1.9071    0.0000 C   0  0  0  0  0  0  0  0  0  0  0  0
    2.8579    0.8250    0.0000 C   0  0  0  0  0  0  0  0  0  0  0  0
    2.8579    0.0000    0.0000 C   0  0  0  0  0  0  0  0  0  0  0  0
    5.5925   -1.9275    0.0000 C   0  0  0  0  0  0  0  0  0  0  0  0
    3.5724    1.2375    0.0000 C   0  0  0  0  0  0  0  0  0  0  0  0
    5.0307   -4.0631    0.0000 C   0  0  0  0  0  0  0  0  0  0  0  0
    6.4130   -1.8413    0.0000 C   0  0  0  0  0  0  0  0  0  0  0  0
    3.5724   -0.4125    0.0000 C   0  0  0  0  0  0  0  0  0  0  0  0
    5.5156   -3.3957    0.0000 C   0  0  0  0  0  0  0  0  0  0  0  0
    7.2074   -0.2599    0.0000 C   0  0  0  0  0  0  0  0  0  0  0  0
    3.7253   -4.6443    0.0000 C   0  0  0  0  0  0  0  0  0  0  0  0
    5.3662   -4.8168    0.0000 C   0  0  0  0  0  0  0  0  0  0  0  0
    3.5759   -6.0654    0.0000 C   0  0  0  0  0  0  0  0  0  0  0  0
    7.5691   -1.0014    0.0000 C   0  0  0  0  0  0  0  0  0  0  0  0
    0.7145   -0.4125    0.0000 Cl  0  0  0  0  0  0  0  0  0  0  0  0
    4.2868    0.0000    0.0000 N   0  0  0  0  0  0  0  0  0  0  0  0
    4.2102   -3.9769    0.0000 N   0  0  0  0  0  0  0  0  0  0  0  0
    6.7486   -1.0876    0.0000 N   0  0  0  0  0  0  0  0  0  0  0  0
    7.6687    0.4241    0.0000 N   0  0  0  0  0  0  0  0  0  0  0  0
    5.1800   -2.6420    0.0000 N   0  0  0  0  0  0  0  0  0  0  0  0
    6.8979   -2.5087    0.0000 O   0  0  0  0  0  0  0  0  0  0  0  0
    6.3361   -3.4819    0.0000 O   0  0  0  0  0  0  0  0  0  0  0  0
    6.3844   -0.2023    0.0000 O   0  0  0  0  0  0  0  0  0  0  0  0
    2.9048   -4.5581    0.0000 O   0  0  0  0  0  0  0  0  0  0  0  0
    8.0486    1.5272    0.0000 O   0  0  0  0  0  0  0  0  0  0  0  0
    6.5656    0.8039    0.0000 O   0  0  0  0  0  0  0  0  0  0  0  0
    3.5724    2.0625    0.0000 O   0  0  0  0  0  0  0  0  0  0  0  0
    3.5724   -1.2375    0.0000 O   0  0  0  0  0  0  0  0  0  0  0  0
    4.0608   -5.3980    0.0000 O   0  0  0  0  0  0  0  0  0  0  0  0
    7.3071    1.1656    0.0000 S   0  0  0  0  0  0  0  0  0  0  0  0
    0.0000    0.0000    0.0000 H   0  0  0  0  0  0  0  0  0  0  0  0
    0.0000    0.0000    0.0000 H   0  0  0  0  0  0  0  0  0  0  0  0
    0.0000    0.0000    0.0000 H   0  0  0  0  0  0  0  0  0  0  0  0
    0.0000    0.0000    0.0000 H   0  0  0  0  0  0  0  0  0  0  0  0
    0.0000    0.0000    0.0000 H   0  0  0  0  0  0  0  0  0  0  0  0
    0.0000    0.0000    0.0000 H   0  0  0  0  0  0  0  0  0  0  0  0
    0.0000    0.0000    0.0000 H   0  0  0  0  0  0  0  0  0  0  0  0
    0.0000    0.0000    0.0000 H   0  0  0  0  0  0  0  0  0  0  0  0
    0.0000    0.0000    0.0000 H   0  0  0  0  0  0  0  0  0  0  0  0
    0.0000    0.0000    0.0000 H   0  0  0  0  0  0  0  0  0  0  0  0
    0.0000    0.0000    0.0000 H   0  0  0  0  0  0  0  0  0  0  0  0
    0.0000    0.0000    0.0000 H   0  0  0  0  0  0  0  0  0  0  0  0
    0.0000    0.0000    0.0000 H   0  0  0  0  0  0  0  0  0  0  0  0
    0.0000    0.0000    0.0000 H   0  0  0  0  0  0  0  0  0  0  0  0
    0.0000    0.0000    0.0000 H   0  0  0  0  0  0  0  0  0  0  0  0
    0.0000    0.0000    0.0000 H   0  0  0  0  0  0  0  0  0  0  0  0
    0.0000    0.0000    0.0000 H   0  0  0  0  0  0  0  0  0  0  0  0
    0.0000    0.0000    0.0000 H   0  0  0  0  0  0  0  0  0  0  0  0
    0.0000    0.0000    0.0000 H   0  0  0  0  0  0  0  0  0  0  0  0
    0.0000    0.0000    0.0000 H   0  0  0  0  0  0  0  0  0  0  0  0
    0.0000    0.0000    0.0000 H   0  0  0  0  0  0  0  0  0  0  0  0
    0.0000    0.0000    0.0000 H   0  0  0  0  0  0  0  0  0  0  0  0
    0.0000    0.0000    0.0000 H   0  0  0  0  0  0  0  0  0  0  0  0
    0.0000    0.0000    0.0000 H   0  0  0  0  0  0  0  0  0  0  0  0
    0.0000    0.0000    0.0000 H   0  0  0  0  0  0  0  0  0  0  0  0
    0.0000    0.0000    0.0000 H   0  0  0  0  0  0  0  0  0  0  0  0
    0.0000    0.0000    0.0000 H   0  0  0  0  0  0  0  0  0  0  0  0
    0.0000    0.0000    0.0000 H   0  0  0  0  0  0  0  0  0  0  0  0
    0.0000    0.0000    0.0000 H   0  0  0  0  0  0  0  0  0  0  0  0
    0.0000    0.0000    0.0000 H   0  0  0  0  0  0  0  0  0  0  0  0
    0.0000    0.0000    0.0000 H   0  0  0  0  0  0  0  0  0  0  0  0
    0.0000    0.0000    0.0000 H   0  0  0  0  0  0  0  0  0  0  0  0
    0.0000    0.0000    0.0000 H   0  0  0  0  0  0  0  0  0  0  0  0
    0.0000    0.0000    0.0000 H   0  0  0  0  0  0  0  0  0  0  0  0
    0.0000    0.0000    0.0000 H   0  0  0  0  0  0  0  0  0  0  0  0
    0.0000    0.0000    0.0000 H   0  0  0  0  0  0  0  0  0  0  0  0
    0.0000    0.0000    0.0000 H   0  0  0  0  0  0  0  0  0  0  0  0
    0.0000    0.0000    0.0000 H   0  0  0  0  0  0  0  0  0  0  0  0
    0.0000    0.0000    0.0000 H   0  0  0  0  0  0  0  0  0  0  0  0
    0.0000    0.0000    0.0000 H   0  0  0  0  0  0  0  0  0  0  0  0
    0.0000    0.0000    0.0000 H   0  0  0  0  0  0  0  0  0  0  0  0
    0.0000    0.0000    0.0000 H   0  0  0  0  0  0  0  0  0  0  0  0
    0.0000    0.0000    0.0000 H   0  0  0  0  0  0  0  0  0  0  0  0
    0.0000    0.0000    0.0000 H   0  0  0  0  0  0  0  0  0  0  0  0
    0.0000    0.0000    0.0000 H   0  0  0  0  0  0  0  0  0  0  0  0
    0.0000    0.0000    0.0000 H   0  0  0  0  0  0  0  0  0  0  0  0
  9  1  2  3
 12 11  1  0
 13 10  2  0
 19  9  1  1
 19 16  1  0
 20 10  1  0
 20 14  2  0
 21 15  1  0
 21 18  1  0
 22 11  1  0
 22 12  1  0
 23 13  1  0
 24 14  1  0
 24 23  2  0
 25 15  1  0
 26 17  2  0
 26 23  1  0
 25 28  1  6
 29 24  1  0
 27 30  1  6
 33  2  1  0
 33  3  1  0
 33  4  1  0
 33 27  1  0
 34  5  1  0
 34  6  1  0
 34  7  1  0
 35 16  1  0
 35 19  1  0
 35 31  1  1
 36 20  1  0
 37 17  1  0
 37 29  2  0
 27 38  1  0
 38 32  2  3
 39 28  2  3
 35 39  1  0
 40 31  2  3
 41 18  1  0
 41 25  1  0
 41 30  1  0
 28 42  1  0
 43 30  2  0
 44 31  1  0
 32 45  1  0
 48  8  1  0
 48 26  1  0
 21 49  1  6
 49 29  1  0
 50 32  1  0
 50 34  1  0
 51 22  1  0
 40 51  1  0
 51 46  2  0
 51 47  2  0
  1 52  1  0
  1 53  1  0
  2 54  1  0
  2 55  1  0
  2 56  1  0
  3 57  1  0
  3 58  1  0
  3 59  1  0
  4 60  1  0
  4 61  1  0
  4 62  1  0
  5 63  1  0
  5 64  1  0
  5 65  1  0
  6 66  1  0
  6 67  1  0
  6 68  1  0
  7 69  1  0
  7 70  1  0
  7 71  1  0
  8 72  1  0
  8 73  1  0
  8 74  1  0
  9 75  1  0
 10 76  1  0
 11 77  1  0
 11 78  1  0
 12 79  1  0
 12 80  1  0
 13 81  1  0
 14 82  1  0
 15 83  1  0
 15 84  1  0
 16 85  1  0
 16 86  1  0
 17 87  1  0
 18 88  1  0
 18 89  1  0
 19 90  1  0
 21 91  1  0
 22 92  1  0
 25 93  1  0
 27 94  1  0
 42 95  1  0
 44 96  1  0
 45 97  1  0
M  END
>  <ALOGPS_LOGP>  (1) 
3.89

>  <ALOGPS_LOGS>  (1) 
-5.36

>  <ALOGPS_SOLUBILITY>  (1) 
3.29e-03 g/l

>  <DATABASE_ID>  (1) 
DB11586

>  <DATABASE_NAME>  (1) 
drugbank

>  <DRUGBANK_ID>  (1) 
DB11586

>  <DRUG_GROUPS>  (1) 
approved; investigational

>  <EXACT_MASS>  (1) 
747.270476492

>  <FORMULA>  (1) 
C35H46ClN5O9S

>  <GENERIC_NAME>  (1) 
Asunaprevir

>  <INCHI_IDENTIFIER>  (1) 
InChI=1S/C35H46ClN5O9S/c1-9-19-16-35(19,31(44)40-51(46,47)22-11-12-22)39-28(42)25-15-21(49-29-24-14-20(36)10-13-23(24)26(48-8)17-37-29)18-41(25)30(43)27(33(2,3)4)38-32(45)50-34(5,6)7/h9-10,13-14,17,19,21-22,25,27H,1,11-12,15-16,18H2,2-8H3,(H,38,45)(H,39,42)(H,40,44)/t19-,21-,25+,27-,35-/m1/s1

>  <INCHI_KEY>  (1) 
XRWSZZJLZRKHHD-WVWIJVSJSA-N

>  <JCHEM_ACCEPTOR_COUNT>  (1) 
13

>  <JCHEM_AVERAGE_POLARIZABILITY>  (1) 
76.40845436890773

>  <JCHEM_BIOAVAILABILITY>  (1) 
0

>  <JCHEM_DONOR_COUNT>  (1) 
3

>  <JCHEM_FORMAL_CHARGE>  (1) 
0

>  <JCHEM_GHOSE_FILTER>  (1) 
0

>  <JCHEM_IUPAC>  (1) 
(2S,4R)-1-[(2S)-2-{[(tert-butoxy)(hydroxy)methylidene]amino}-3,3-dimethylbutanoyl]-4-[(7-chloro-4-methoxyisoquinolin-1-yl)oxy]-N-[(1R,2S)-1-[(cyclopropanesulfonyl)-C-hydroxycarbonimidoyl]-2-ethenylcyclopropyl]pyrrolidine-2-carboximidic acid

>  <JCHEM_LOGP>  (1) 
5.428389818666665

>  <JCHEM_MDDR_LIKE_RULE>  (1) 
1

>  <JCHEM_NUMBER_OF_RINGS>  (1) 
5

>  <JCHEM_PHYSIOLOGICAL_CHARGE>  (1) 
0

>  <JCHEM_PKA>  (1) 
6.0254501220715175

>  <JCHEM_PKA_STRONGEST_ACIDIC>  (1) 
5.27787643077655

>  <JCHEM_PKA_STRONGEST_BASIC>  (1) 
1.8618674653613134

>  <JCHEM_POLAR_SURFACE_AREA>  (1) 
192.79999999999995

>  <JCHEM_REFRACTIVITY>  (1) 
188.4562

>  <JCHEM_ROTATABLE_BOND_COUNT>  (1) 
13

>  <JCHEM_RULE_OF_FIVE>  (1) 
0

>  <JCHEM_TRADITIONAL_IUPAC>  (1) 
(2S,4R)-1-[(2S)-2-{[tert-butoxy(hydroxy)methylidene]amino}-3,3-dimethylbutanoyl]-4-[(7-chloro-4-methoxyisoquinolin-1-yl)oxy]-N-[(1R,2S)-1-(cyclopropanesulfonyl-C-hydroxycarbonimidoyl)-2-ethenylcyclopropyl]pyrrolidine-2-carboximidic acid

>  <JCHEM_VEBER_RULE>  (1) 
0

>  <MOLECULAR_WEIGHT>  (1) 
748.286

>  <PRODUCTS>  (1) 
Sunvepra

>  <SMILES>  (1) 
[H][C@@](N=C(O)OC(C)(C)C)(C(=O)N1C[C@@]([H])(C[C@@]1([H])C(O)=N[C@@]1(C[C@@]1([H])C=C)C(O)=NS(=O)(=O)C1CC1)OC1=NC=C(OC)C2=C1C=C(Cl)C=C2)C(C)(C)C

$$$$
