
     RDKit          2D

 48 51  0  0  1  0  0  0  0  0999 V2000
    3.0561    1.2853    0.0000 C   0  0  0  0  0  0  0  0  0  0  0  0
    1.7798    6.0384    0.0000 C   0  0  0  0  0  0  0  0  0  0  0  0
    3.2087    6.0384    0.0000 C   0  0  0  0  0  0  0  0  0  0  0  0
    1.7798    5.2134    0.0000 C   0  0  0  0  0  0  0  0  0  0  0  0
    3.2087    5.2134    0.0000 C   0  0  0  0  0  0  0  0  0  0  0  0
    4.4709   -0.3361    0.0000 C   0  0  0  0  0  0  0  0  0  0  0  0
    5.1383    0.1487    0.0000 C   0  0  0  0  0  0  0  0  0  0  0  0
    3.6310    0.8198    0.0000 C   0  0  0  0  0  0  0  0  0  0  0  0
    2.4943    7.2759    0.0000 C   0  0  0  0  0  0  0  0  0  0  0  0
    1.8268    3.4910    0.0000 C   0  0  0  0  0  0  0  0  0  0  0  0
    4.1259    2.9457    0.0000 C   0  0  0  0  0  0  0  0  0  0  0  0
    6.0629    3.8431    0.0000 C   0  0  0  0  0  0  0  0  0  0  0  0
    4.7934    4.2556    0.0000 C   0  0  0  0  0  0  0  0  0  0  0  0
    3.3917    2.0390    0.0000 C   0  0  0  0  0  0  0  0  0  0  0  0
    2.4943    6.4509    0.0000 C   0  0  0  0  0  0  0  0  0  0  0  0
    2.4943    4.8009    0.0000 C   0  0  0  0  0  0  0  0  0  0  0  0
    3.7172   -0.0006    0.0000 C   0  0  0  0  0  0  0  0  0  0  0  0
    4.2984    1.3047    0.0000 C   0  0  0  0  0  0  0  0  0  0  0  0
    5.0521    0.9692    0.0000 C   0  0  0  0  0  0  0  0  0  0  0  0
    2.4943    3.9759    0.0000 C   0  0  0  0  0  0  0  0  0  0  0  0
    2.9068    2.7064    0.0000 C   0  0  0  0  0  0  0  0  0  0  0  0
    4.2122    2.1252    0.0000 C   0  0  0  0  0  0  0  0  0  0  0  0
    3.0498   -0.4855    0.0000 F   0  0  0  0  0  0  0  0  0  0  0  0
    5.7195    1.4541    0.0000 F   0  0  0  0  0  0  0  0  0  0  0  0
    2.4943    8.1009    0.0000 N   0  0  0  0  0  0  0  0  0  0  0  0
    5.5780    4.5105    0.0000 N   0  0  0  0  0  0  0  0  0  0  0  0
    5.5780    3.1757    0.0000 N   0  0  0  0  0  0  0  0  0  0  0  0
    3.1617    3.4910    0.0000 N   0  0  0  0  0  0  0  0  0  0  0  0
    4.7934    3.4306    0.0000 N   0  0  0  0  0  0  0  0  0  0  0  0
    5.0326    2.2114    0.0000 O   0  0  0  0  0  0  0  0  0  0  0  0
    2.0818    2.7064    0.0000 S   0  0  0  0  0  0  0  0  0  0  0  0
    0.0000    0.0000    0.0000 H   0  0  0  0  0  0  0  0  0  0  0  0
    0.0000    0.0000    0.0000 H   0  0  0  0  0  0  0  0  0  0  0  0
    0.0000    0.0000    0.0000 H   0  0  0  0  0  0  0  0  0  0  0  0
    0.0000    0.0000    0.0000 H   0  0  0  0  0  0  0  0  0  0  0  0
    0.0000    0.0000    0.0000 H   0  0  0  0  0  0  0  0  0  0  0  0
    0.0000    0.0000    0.0000 H   0  0  0  0  0  0  0  0  0  0  0  0
    0.0000    0.0000    0.0000 H   0  0  0  0  0  0  0  0  0  0  0  0
    0.0000    0.0000    0.0000 H   0  0  0  0  0  0  0  0  0  0  0  0
    0.0000    0.0000    0.0000 H   0  0  0  0  0  0  0  0  0  0  0  0
    0.0000    0.0000    0.0000 H   0  0  0  0  0  0  0  0  0  0  0  0
    0.0000    0.0000    0.0000 H   0  0  0  0  0  0  0  0  0  0  0  0
    0.0000    0.0000    0.0000 H   0  0  0  0  0  0  0  0  0  0  0  0
    0.0000    0.0000    0.0000 H   0  0  0  0  0  0  0  0  0  0  0  0
    0.0000    0.0000    0.0000 H   0  0  0  0  0  0  0  0  0  0  0  0
    0.0000    0.0000    0.0000 H   0  0  0  0  0  0  0  0  0  0  0  0
    0.0000    0.0000    0.0000 H   0  0  0  0  0  0  0  0  0  0  0  0
    0.0000    0.0000    0.0000 H   0  0  0  0  0  0  0  0  0  0  0  0
  4  2  2  0
  5  3  1  0
  7  6  2  0
 14  1  1  1
 15  2  1  0
 15  3  2  0
 15  9  1  0
 16  4  1  0
 16  5  2  0
 17  6  1  0
 17  8  2  0
 18  8  1  0
 19  7  1  0
 19 18  2  0
 20 10  2  0
 20 16  1  0
 21 14  1  0
 22 11  1  6
 22 14  1  0
 22 18  1  0
 23 17  1  0
 24 19  1  0
 25  9  3  0
 26 12  1  0
 26 13  2  0
 27 12  2  0
 28 20  1  0
 28 21  2  0
 29 11  1  0
 29 13  1  0
 29 27  1  0
 22 30  1  0
 31 10  1  0
 31 21  1  0
  1 32  1  0
  1 33  1  0
  1 34  1  0
  2 35  1  0
  3 36  1  0
  4 37  1  0
  5 38  1  0
  6 39  1  0
  7 40  1  0
  8 41  1  0
 10 42  1  0
 11 43  1  0
 11 44  1  0
 12 45  1  0
 13 46  1  0
 14 47  1  0
 30 48  1  0
M  END
>  <ALOGPS_LOGP>  (1) 
3.46

>  <ALOGPS_LOGS>  (1) 
-4.43

>  <ALOGPS_SOLUBILITY>  (1) 
1.62e-02 g/l

>  <DATABASE_ID>  (1) 
DB11633

>  <DATABASE_NAME>  (1) 
drugbank

>  <DRUGBANK_ID>  (1) 
DB11633

>  <DRUG_GROUPS>  (1) 
approved; investigational

>  <EXACT_MASS>  (1) 
437.112187687

>  <FORMULA>  (1) 
C22H17F2N5OS

>  <GENERIC_NAME>  (1) 
Isavuconazole

>  <INCHI_IDENTIFIER>  (1) 
InChI=1S/C22H17F2N5OS/c1-14(21-28-20(10-31-21)16-4-2-15(9-25)3-5-16)22(30,11-29-13-26-12-27-29)18-8-17(23)6-7-19(18)24/h2-8,10,12-14,30H,11H2,1H3/t14-,22+/m0/s1

>  <INCHI_KEY>  (1) 
DDFOUSQFMYRUQK-RCDICMHDSA-N

>  <JCHEM_ACCEPTOR_COUNT>  (1) 
5

>  <JCHEM_ATOM_COUNT>  (1) 
48

>  <JCHEM_AVERAGE_POLARIZABILITY>  (1) 
42.60854238554723

>  <JCHEM_BIOAVAILABILITY>  (1) 
1

>  <JCHEM_DONOR_COUNT>  (1) 
1

>  <JCHEM_FORMAL_CHARGE>  (1) 
0

>  <JCHEM_GHOSE_FILTER>  (1) 
1

>  <JCHEM_IUPAC>  (1) 
4-{2-[(2R,3R)-3-(2,5-difluorophenyl)-3-hydroxy-4-(1H-1,2,4-triazol-1-yl)butan-2-yl]-1,3-thiazol-4-yl}benzonitrile

>  <JCHEM_LOGP>  (1) 
4.143500234

>  <JCHEM_MDDR_LIKE_RULE>  (1) 
1

>  <JCHEM_NUMBER_OF_RINGS>  (1) 
4

>  <JCHEM_PHYSIOLOGICAL_CHARGE>  (1) 
0

>  <JCHEM_PKA_STRONGEST_ACIDIC>  (1) 
12.606709666433126

>  <JCHEM_PKA_STRONGEST_BASIC>  (1) 
2.4612059087127154

>  <JCHEM_POLAR_SURFACE_AREA>  (1) 
87.62

>  <JCHEM_REFRACTIVITY>  (1) 
123.94069999999998

>  <JCHEM_ROTATABLE_BOND_COUNT>  (1) 
6

>  <JCHEM_RULE_OF_FIVE>  (1) 
1

>  <JCHEM_TRADITIONAL_IUPAC>  (1) 
isavuconazole

>  <JCHEM_VEBER_RULE>  (1) 
0

>  <MOLECULAR_WEIGHT>  (1) 
437.47

>  <SMILES>  (1) 
[H][C@](C)(C1=NC(=CS1)C1=CC=C(C=C1)C#N)[C@](O)(CN1C=NC=N1)C1=C(F)C=CC(F)=C1

>  <SYNONYMS>  (1) 
isavuconazol; isavuconazole; isavuconazolum

$$$$
