
     RDKit          2D

 28 29  0  0  0  0  0  0  0  0999 V2000
   -1.6577   -0.4756    0.0000 C   0  0  0  0  0  0  0  0  0  0  0  0
   -1.4102   -1.2594    0.0000 C   0  0  0  0  0  0  0  0  0  0  0  0
   -0.5852   -1.2594    0.0000 C   0  0  0  0  0  0  0  0  0  0  0  0
   -0.3376   -0.4756    0.0000 C   0  0  0  0  0  0  0  0  0  0  0  0
   -0.9977    0.0193    0.0000 N   0  0  0  0  0  0  0  0  0  0  0  0
   -2.4415   -0.1868    0.0000 O   0  0  0  0  0  0  0  0  0  0  0  0
    0.3635   -0.0631    0.0000 C   0  0  0  0  0  0  0  0  0  0  0  0
    1.0647   -0.4756    0.0000 N   0  0  0  0  0  0  0  0  0  0  0  0
    0.3635    0.7619    0.0000 O   0  0  0  0  0  0  0  0  0  0  0  0
    1.3194   -1.2604    0.0000 C   0  0  0  0  0  0  0  0  0  0  0  0
    2.1444   -1.2607    0.0000 S   0  0  0  0  0  0  0  0  0  0  0  0
    2.3998   -0.4761    0.0000 C   0  0  0  0  0  0  0  0  0  0  0  0
    1.7324    0.0090    0.0000 C   0  0  0  0  0  0  0  0  0  0  0  0
    1.7328    0.8443    0.0000 C   0  0  0  0  0  0  0  0  0  0  0  0
    2.4415    1.2529    0.0000 O   0  0  0  0  0  0  0  0  0  0  0  0
    1.0125    1.2607    0.0000 O   0  0  0  0  0  0  0  0  0  0  0  0
    0.0000    0.0000    0.0000 H   0  0  0  0  0  0  0  0  0  0  0  0
    0.0000    0.0000    0.0000 H   0  0  0  0  0  0  0  0  0  0  0  0
    0.0000    0.0000    0.0000 H   0  0  0  0  0  0  0  0  0  0  0  0
    0.0000    0.0000    0.0000 H   0  0  0  0  0  0  0  0  0  0  0  0
    0.0000    0.0000    0.0000 H   0  0  0  0  0  0  0  0  0  0  0  0
    0.0000    0.0000    0.0000 H   0  0  0  0  0  0  0  0  0  0  0  0
    0.0000    0.0000    0.0000 H   0  0  0  0  0  0  0  0  0  0  0  0
    0.0000    0.0000    0.0000 H   0  0  0  0  0  0  0  0  0  0  0  0
    0.0000    0.0000    0.0000 H   0  0  0  0  0  0  0  0  0  0  0  0
    0.0000    0.0000    0.0000 H   0  0  0  0  0  0  0  0  0  0  0  0
    0.0000    0.0000    0.0000 H   0  0  0  0  0  0  0  0  0  0  0  0
    0.0000    0.0000    0.0000 H   0  0  0  0  0  0  0  0  0  0  0  0
  1  2  1  0
  2  3  1  0
  3  4  1  0
  4  5  1  0
  1  5  1  0
  1  6  2  0
  7  8  1  0
  4  7  1  6
  7  9  2  0
  8 10  1  0
 10 11  1  0
 11 12  1  0
 12 13  1  0
  8 13  1  0
 13 14  1  6
 14 15  1  0
 14 16  2  0
  2 17  1  0
  2 18  1  0
  3 19  1  0
  3 20  1  0
  4 21  1  0
  5 22  1  0
 10 23  1  0
 10 24  1  0
 12 25  1  0
 12 26  1  0
 13 27  1  0
 15 28  1  0
M  END
>  <ALOGPS_LOGP>  (1) 
-1.13

>  <ALOGPS_LOGS>  (1) 
-1.10

>  <ALOGPS_SOLUBILITY>  (1) 
1.95e+01 g/l

>  <DATABASE_ID>  (1) 
DB11364

>  <DATABASE_NAME>  (1) 
drugbank

>  <DRUGBANK_ID>  (1) 
DB11364

>  <DRUG_GROUPS>  (1) 
approved

>  <EXACT_MASS>  (1) 
244.051778048

>  <FORMULA>  (1) 
C9H12N2O4S

>  <GENERIC_NAME>  (1) 
Pidotimod

>  <INCHI_IDENTIFIER>  (1) 
InChI=1S/C9H12N2O4S/c12-7-2-1-5(10-7)8(13)11-4-16-3-6(11)9(14)15/h5-6H,1-4H2,(H,10,12)(H,14,15)/t5-,6-/m0/s1

>  <INCHI_KEY>  (1) 
UUTKICFRNVKFRG-WDSKDSINSA-N

>  <INTERNATIONAL_BRANDS>  (1) 
Pilimod

>  <JCHEM_ACCEPTOR_COUNT>  (1) 
4

>  <JCHEM_ATOM_COUNT>  (1) 
28

>  <JCHEM_AVERAGE_POLARIZABILITY>  (1) 
22.468046770534052

>  <JCHEM_BIOAVAILABILITY>  (1) 
1

>  <JCHEM_DONOR_COUNT>  (1) 
2

>  <JCHEM_FORMAL_CHARGE>  (1) 
0

>  <JCHEM_GHOSE_FILTER>  (1) 
0

>  <JCHEM_IUPAC>  (1) 
(4R)-3-[(2S)-5-oxopyrrolidine-2-carbonyl]-1,3-thiazolidine-4-carboxylic acid

>  <JCHEM_LOGP>  (1) 
-1.2931192746666664

>  <JCHEM_MDDR_LIKE_RULE>  (1) 
0

>  <JCHEM_NUMBER_OF_RINGS>  (1) 
2

>  <JCHEM_PHYSIOLOGICAL_CHARGE>  (1) 
-1

>  <JCHEM_PKA>  (1) 
11.16851551936525

>  <JCHEM_PKA_STRONGEST_ACIDIC>  (1) 
3.565709843623443

>  <JCHEM_PKA_STRONGEST_BASIC>  (1) 
-2.1906986485909234

>  <JCHEM_POLAR_SURFACE_AREA>  (1) 
86.71000000000001

>  <JCHEM_REFRACTIVITY>  (1) 
55.834100000000014

>  <JCHEM_ROTATABLE_BOND_COUNT>  (1) 
2

>  <JCHEM_RULE_OF_FIVE>  (1) 
1

>  <JCHEM_TRADITIONAL_IUPAC>  (1) 
pidotimod

>  <JCHEM_VEBER_RULE>  (1) 
0

>  <MOLECULAR_WEIGHT>  (1) 
244.27

>  <SMILES>  (1) 
OC(=O)[C@@H]1CSCN1C(=O)[C@@H]1CCC(=O)N1

$$$$
