
     RDKit          2D

 55 56  0  0  0  0  0  0  0  0999 V2000
    1.5565    7.7579    0.0000 C   0  0  0  0  0  0  0  0  0  0  0  0
    1.9528    6.3850    0.0000 C   0  0  0  0  0  0  0  0  0  0  0  0
    2.3491    7.9867    0.0000 C   0  0  0  0  0  0  0  0  0  0  0  0
    2.7454    6.6138    0.0000 C   0  0  0  0  0  0  0  0  0  0  0  0
    9.8428    5.6616    0.0000 C   0  0  0  0  0  0  0  0  0  0  0  0
   10.0577    6.4581    0.0000 C   0  0  0  0  0  0  0  0  0  0  0  0
    9.0455    5.4494    0.0000 C   0  0  0  0  0  0  0  0  0  0  0  0
    8.1539    8.7482    0.0000 C   0  0  0  0  0  0  0  0  0  0  0  0
    7.3589    8.5277    0.0000 C   0  0  0  0  0  0  0  0  0  0  0  0
    9.4753    7.0424    0.0000 C   0  0  0  0  0  0  0  0  0  0  0  0
    8.4632    6.0338    0.0000 C   0  0  0  0  0  0  0  0  0  0  0  0
    8.6093    8.0603    0.0000 C   0  0  0  0  0  0  0  0  0  0  0  0
    7.3229    7.7035    0.0000 C   0  0  0  0  0  0  0  0  0  0  0  0
    3.7362    7.6434    0.0000 C   0  0  0  0  0  0  0  0  0  0  0  0
    4.3307    7.0714    0.0000 C   0  0  0  0  0  0  0  0  0  0  0  0
    5.7178    6.7282    0.0000 C   0  0  0  0  0  0  0  0  0  0  0  0
    6.5104    6.9570    0.0000 C   0  0  0  0  0  0  0  0  0  0  0  0
    8.6781    6.8303    0.0000 C   0  0  0  0  0  0  0  0  0  0  0  0
    7.8975    6.6138    0.0000 C   0  0  0  0  0  0  0  0  0  0  0  0
    8.0957    7.4146    0.0000 C   0  0  0  0  0  0  0  0  0  0  0  0
    2.9436    7.4146    0.0000 N   0  0  0  0  0  0  0  0  0  0  0  0
    8.0423    5.8016    0.0000 O   0  0  0  0  0  0  0  0  0  0  0  0
    5.1233    7.3002    0.0000 O   0  0  0  0  0  0  0  0  0  0  0  0
    7.1049    6.3850    0.0000 O   0  0  0  0  0  0  0  0  0  0  0  0
    0.0000    0.0000    0.0000 H   0  0  0  0  0  0  0  0  0  0  0  0
    0.0000    0.0000    0.0000 H   0  0  0  0  0  0  0  0  0  0  0  0
    0.0000    0.0000    0.0000 H   0  0  0  0  0  0  0  0  0  0  0  0
    0.0000    0.0000    0.0000 H   0  0  0  0  0  0  0  0  0  0  0  0
    0.0000    0.0000    0.0000 H   0  0  0  0  0  0  0  0  0  0  0  0
    0.0000    0.0000    0.0000 H   0  0  0  0  0  0  0  0  0  0  0  0
    0.0000    0.0000    0.0000 H   0  0  0  0  0  0  0  0  0  0  0  0
    0.0000    0.0000    0.0000 H   0  0  0  0  0  0  0  0  0  0  0  0
    0.0000    0.0000    0.0000 H   0  0  0  0  0  0  0  0  0  0  0  0
    0.0000    0.0000    0.0000 H   0  0  0  0  0  0  0  0  0  0  0  0
    0.0000    0.0000    0.0000 H   0  0  0  0  0  0  0  0  0  0  0  0
    0.0000    0.0000    0.0000 H   0  0  0  0  0  0  0  0  0  0  0  0
    0.0000    0.0000    0.0000 H   0  0  0  0  0  0  0  0  0  0  0  0
    0.0000    0.0000    0.0000 H   0  0  0  0  0  0  0  0  0  0  0  0
    0.0000    0.0000    0.0000 H   0  0  0  0  0  0  0  0  0  0  0  0
    0.0000    0.0000    0.0000 H   0  0  0  0  0  0  0  0  0  0  0  0
    0.0000    0.0000    0.0000 H   0  0  0  0  0  0  0  0  0  0  0  0
    0.0000    0.0000    0.0000 H   0  0  0  0  0  0  0  0  0  0  0  0
    0.0000    0.0000    0.0000 H   0  0  0  0  0  0  0  0  0  0  0  0
    0.0000    0.0000    0.0000 H   0  0  0  0  0  0  0  0  0  0  0  0
    0.0000    0.0000    0.0000 H   0  0  0  0  0  0  0  0  0  0  0  0
    0.0000    0.0000    0.0000 H   0  0  0  0  0  0  0  0  0  0  0  0
    0.0000    0.0000    0.0000 H   0  0  0  0  0  0  0  0  0  0  0  0
    0.0000    0.0000    0.0000 H   0  0  0  0  0  0  0  0  0  0  0  0
    0.0000    0.0000    0.0000 H   0  0  0  0  0  0  0  0  0  0  0  0
    0.0000    0.0000    0.0000 H   0  0  0  0  0  0  0  0  0  0  0  0
    0.0000    0.0000    0.0000 H   0  0  0  0  0  0  0  0  0  0  0  0
    0.0000    0.0000    0.0000 H   0  0  0  0  0  0  0  0  0  0  0  0
    0.0000    0.0000    0.0000 H   0  0  0  0  0  0  0  0  0  0  0  0
    0.0000    0.0000    0.0000 H   0  0  0  0  0  0  0  0  0  0  0  0
    0.0000    0.0000    0.0000 H   0  0  0  0  0  0  0  0  0  0  0  0
  3  1  1  0
  4  2  1  0
  6  5  2  0
  7  5  1  0
  9  8  1  0
 10  6  1  0
 11  7  2  0
 12  8  1  0
 13  9  1  0
 15 14  1  0
 17 16  1  0
 18 10  2  0
 18 11  1  0
 20 12  1  0
 20 13  1  0
 20 18  1  0
 20 19  1  0
 21  3  1  0
 21  4  1  0
 21 14  1  0
 22 19  2  0
 23 15  1  0
 23 16  1  0
 24 17  1  0
 24 19  1  0
  1 25  1  0
  1 26  1  0
  1 27  1  0
  2 28  1  0
  2 29  1  0
  2 30  1  0
  3 31  1  0
  3 32  1  0
  4 33  1  0
  4 34  1  0
  5 35  1  0
  6 36  1  0
  7 37  1  0
  8 38  1  0
  8 39  1  0
  9 40  1  0
  9 41  1  0
 10 42  1  0
 11 43  1  0
 12 44  1  0
 12 45  1  0
 13 46  1  0
 13 47  1  0
 14 48  1  0
 14 49  1  0
 15 50  1  0
 15 51  1  0
 16 52  1  0
 16 53  1  0
 17 54  1  0
 17 55  1  0
M  END
>  <ALOGPS_LOGP>  (1) 
4.16

>  <ALOGPS_LOGS>  (1) 
-4.16

>  <ALOGPS_SOLUBILITY>  (1) 
2.31e-02 g/l

>  <DATABASE_ID>  (1) 
DB11186

>  <DATABASE_NAME>  (1) 
drugbank

>  <DRUGBANK_ID>  (1) 
DB11186

>  <DRUG_GROUPS>  (1) 
approved; investigational

>  <EXACT_MASS>  (1) 
333.230393862

>  <FORMULA>  (1) 
C20H31NO3

>  <GENERIC_NAME>  (1) 
Pentoxyverine

>  <INCHI_IDENTIFIER>  (1) 
InChI=1S/C20H31NO3/c1-3-21(4-2)14-15-23-16-17-24-19(22)20(12-8-9-13-20)18-10-6-5-7-11-18/h5-7,10-11H,3-4,8-9,12-17H2,1-2H3

>  <INCHI_KEY>  (1) 
CFJMRBQWBDQYMK-UHFFFAOYSA-N

>  <JCHEM_ACCEPTOR_COUNT>  (1) 
3

>  <JCHEM_ATOM_COUNT>  (1) 
55

>  <JCHEM_AVERAGE_POLARIZABILITY>  (1) 
39.70661632973978

>  <JCHEM_BIOAVAILABILITY>  (1) 
1

>  <JCHEM_DONOR_COUNT>  (1) 
0

>  <JCHEM_FORMAL_CHARGE>  (1) 
0

>  <JCHEM_GHOSE_FILTER>  (1) 
1

>  <JCHEM_IUPAC>  (1) 
2-[2-(diethylamino)ethoxy]ethyl 1-phenylcyclopentane-1-carboxylate

>  <JCHEM_LOGP>  (1) 
3.966585092333333

>  <JCHEM_MDDR_LIKE_RULE>  (1) 
0

>  <JCHEM_NUMBER_OF_RINGS>  (1) 
2

>  <JCHEM_PHYSIOLOGICAL_CHARGE>  (1) 
1

>  <JCHEM_PKA_STRONGEST_BASIC>  (1) 
9.414820687956592

>  <JCHEM_POLAR_SURFACE_AREA>  (1) 
38.77

>  <JCHEM_REFRACTIVITY>  (1) 
97.16979999999997

>  <JCHEM_ROTATABLE_BOND_COUNT>  (1) 
11

>  <JCHEM_RULE_OF_FIVE>  (1) 
1

>  <JCHEM_TRADITIONAL_IUPAC>  (1) 
pentoxyverine

>  <JCHEM_VEBER_RULE>  (1) 
0

>  <MOLECULAR_WEIGHT>  (1) 
333.472

>  <PRODUCTS>  (1) 
Carbatuss; EXPECTUSS Liquid; Poly Hist CB; Vicks Cough Syrup New Improved

>  <SALTS>  (1) 
Pentoxyverine citrate

>  <SMILES>  (1) 
CCN(CC)CCOCCOC(=O)C1(CCCC1)C1=CC=CC=C1

>  <SYNONYMS>  (1) 
Carbetapentane

$$$$
