
     RDKit          2D

 38 41  0  0  0  0  0  0  0  0999 V2000
   -2.2286    0.0000    0.0000 C   0  0  0  0  0  0  0  0  0  0  0  0
    3.9934    0.8250    0.0000 C   0  0  0  0  0  0  0  0  0  0  0  0
   -1.5141   -0.4125    0.0000 C   0  0  0  0  0  0  0  0  0  0  0  0
    3.2789    1.2375    0.0000 C   0  0  0  0  0  0  0  0  0  0  0  0
   -1.5141    1.2375    0.0000 C   0  0  0  0  0  0  0  0  0  0  0  0
    3.2789   -0.4125    0.0000 C   0  0  0  0  0  0  0  0  0  0  0  0
   -2.2286    0.8250    0.0000 C   0  0  0  0  0  0  0  0  0  0  0  0
    3.9934    0.0000    0.0000 C   0  0  0  0  0  0  0  0  0  0  0  0
   -0.7996    0.8250    0.0000 C   0  0  0  0  0  0  0  0  0  0  0  0
    2.5645    0.0000    0.0000 C   0  0  0  0  0  0  0  0  0  0  0  0
   -0.7996    0.0000    0.0000 C   0  0  0  0  0  0  0  0  0  0  0  0
    2.5645    0.8250    0.0000 C   0  0  0  0  0  0  0  0  0  0  0  0
    0.4699    0.4125    0.0000 C   0  0  0  0  0  0  0  0  0  0  0  0
    1.2949    0.4125    0.0000 C   0  0  0  0  0  0  0  0  0  0  0  0
   -0.0150    1.0799    0.0000 C   0  0  0  0  0  0  0  0  0  0  0  0
    1.7798   -0.2549    0.0000 C   0  0  0  0  0  0  0  0  0  0  0  0
   -0.0150   -0.2549    0.0000 N   0  0  0  0  0  0  0  0  0  0  0  0
    1.7798    1.0799    0.0000 N   0  0  0  0  0  0  0  0  0  0  0  0
    0.2399    1.8646    0.0000 O   0  0  0  0  0  0  0  0  0  0  0  0
    1.5249   -1.0396    0.0000 O   0  0  0  0  0  0  0  0  0  0  0  0
   -3.6575    1.6500    0.0000 O   0  0  0  0  0  0  0  0  0  0  0  0
   -3.3555    0.5230    0.0000 O   0  0  0  0  0  0  0  0  0  0  0  0
   -2.5305    1.9520    0.0000 O   0  0  0  0  0  0  0  0  0  0  0  0
    5.4223   -0.8250    0.0000 O   0  0  0  0  0  0  0  0  0  0  0  0
    4.2954   -1.1270    0.0000 O   0  0  0  0  0  0  0  0  0  0  0  0
    5.1204    0.3020    0.0000 O   0  0  0  0  0  0  0  0  0  0  0  0
   -2.9430    1.2375    0.0000 S   0  0  0  0  0  0  0  0  0  0  0  0
    4.7079   -0.4125    0.0000 S   0  0  0  0  0  0  0  0  0  0  0  0
    0.0000    0.0000    0.0000 H   0  0  0  0  0  0  0  0  0  0  0  0
    0.0000    0.0000    0.0000 H   0  0  0  0  0  0  0  0  0  0  0  0
    0.0000    0.0000    0.0000 H   0  0  0  0  0  0  0  0  0  0  0  0
    0.0000    0.0000    0.0000 H   0  0  0  0  0  0  0  0  0  0  0  0
    0.0000    0.0000    0.0000 H   0  0  0  0  0  0  0  0  0  0  0  0
    0.0000    0.0000    0.0000 H   0  0  0  0  0  0  0  0  0  0  0  0
    0.0000    0.0000    0.0000 H   0  0  0  0  0  0  0  0  0  0  0  0
    0.0000    0.0000    0.0000 H   0  0  0  0  0  0  0  0  0  0  0  0
    0.0000    0.0000    0.0000 H   0  0  0  0  0  0  0  0  0  0  0  0
    0.0000    0.0000    0.0000 H   0  0  0  0  0  0  0  0  0  0  0  0
  3  1  2  0
  4  2  2  0
  7  1  1  0
  7  5  2  0
  8  2  1  0
  8  6  2  0
  9  5  1  0
 10  6  1  0
 11  3  1  0
 11  9  2  0
 12  4  1  0
 12 10  2  0
 14 13  2  0
 15  9  1  0
 15 13  1  0
 16 10  1  0
 16 14  1  0
 17 11  1  0
 17 13  1  0
 18 12  1  0
 18 14  1  0
 19 15  2  0
 20 16  2  0
 27  7  1  0
 27 21  1  0
 27 22  2  0
 27 23  2  0
 28  8  1  0
 28 24  1  0
 28 25  2  0
 28 26  2  0
  1 29  1  0
  2 30  1  0
  3 31  1  0
  4 32  1  0
  5 33  1  0
  6 34  1  0
 17 35  1  0
 18 36  1  0
 21 37  1  0
 24 38  1  0
M  END
>  <ALOGPS_LOGP>  (1) 
-0.94

>  <ALOGPS_LOGS>  (1) 
-3.63

>  <ALOGPS_SOLUBILITY>  (1) 
9.96e-02 g/l

>  <DATABASE_ID>  (1) 
DB11577

>  <DATABASE_NAME>  (1) 
drugbank

>  <DRUGBANK_ID>  (1) 
DB11577

>  <DRUG_GROUPS>  (1) 
approved

>  <EXACT_MASS>  (1) 
421.987856686

>  <FORMULA>  (1) 
C16H10N2O8S2

>  <GENERIC_NAME>  (1) 
Indigotindisulfonic Acid

>  <INCHI_IDENTIFIER>  (1) 
InChI=1S/C16H10N2O8S2/c19-15-9-5-7(27(21,22)23)1-3-11(9)17-13(15)14-16(20)10-6-8(28(24,25)26)2-4-12(10)18-14/h1-6,17-18H,(H,21,22,23)(H,24,25,26)/b14-13+

>  <INCHI_KEY>  (1) 
CFZXDJWFRVEWSR-BUHFOSPRSA-N

>  <JCHEM_ACCEPTOR_COUNT>  (1) 
10

>  <JCHEM_AVERAGE_POLARIZABILITY>  (1) 
39.646678775401426

>  <JCHEM_BIOAVAILABILITY>  (1) 
1

>  <JCHEM_DONOR_COUNT>  (1) 
4

>  <JCHEM_FORMAL_CHARGE>  (1) 
0

>  <JCHEM_GHOSE_FILTER>  (1) 
1

>  <JCHEM_IUPAC>  (1) 
3-oxo-2-[(2E)-3-oxo-5-sulfo-2,3-dihydro-1H-indol-2-ylidene]-2,3-dihydro-1H-indole-5-sulfonic acid

>  <JCHEM_LOGP>  (1) 
1.0141740006666669

>  <JCHEM_MDDR_LIKE_RULE>  (1) 
0

>  <JCHEM_NUMBER_OF_RINGS>  (1) 
4

>  <JCHEM_PHYSIOLOGICAL_CHARGE>  (1) 
-2

>  <JCHEM_PKA>  (1) 
-2.149454650268563

>  <JCHEM_PKA_STRONGEST_ACIDIC>  (1) 
-2.8254973064029025

>  <JCHEM_PKA_STRONGEST_BASIC>  (1) 
-7.661388393713553

>  <JCHEM_POLAR_SURFACE_AREA>  (1) 
166.93999999999997

>  <JCHEM_REFRACTIVITY>  (1) 
101.28599999999996

>  <JCHEM_ROTATABLE_BOND_COUNT>  (1) 
2

>  <JCHEM_RULE_OF_FIVE>  (1) 
1

>  <JCHEM_TRADITIONAL_IUPAC>  (1) 
3-oxo-2-[(2E)-3-oxo-5-sulfo-1H-indol-2-ylidene]-1H-indole-5-sulfonic acid

>  <JCHEM_VEBER_RULE>  (1) 
0

>  <MOLECULAR_WEIGHT>  (1) 
422.389

>  <PRODUCTS>  (1) 
Indigo Carmine

>  <SALTS>  (1) 
Indigotindisulfonate sodium

>  <SMILES>  (1) 
OS(=O)(=O)C1=CC2=C(N\C(C2=O)=C2\NC3=C(C=C(C=C3)S(O)(=O)=O)C2=O)C=C1

>  <SYNONYMS>  (1) 
5,5'-indigotindisulfonic Acid; Blue X; Indigo carmine acid; Indigotindisulfonate; Saxon blue

$$$$
