
     RDKit          2D

 55 54  0  0  1  0  0  0  0  0999 V2000
    5.5002    1.3021    0.0000 C   0  0  0  0  0  0  0  0  0  0  0  0
    6.1418    1.8207    0.0000 C   0  0  0  0  0  0  0  0  0  0  0  0
    6.0134    2.6356    0.0000 C   0  0  0  0  0  0  0  0  0  0  0  0
    6.9117    1.5243    0.0000 C   0  0  0  0  0  0  0  0  0  0  0  0
    7.5533    2.0429    0.0000 C   0  0  0  0  0  0  0  0  0  0  0  0
    7.4250    2.8579    0.0000 C   0  0  0  0  0  0  0  0  0  0  0  0
    8.0666    3.3765    0.0000 O   0  0  0  0  0  0  0  0  0  0  0  0
    6.6551    3.1542    0.0000 O   0  0  0  0  0  0  0  0  0  0  0  0
    6.5267    3.9692    0.0000 C   0  0  0  0  0  0  0  0  0  0  0  0
    8.3233    1.7466    0.0000 N   0  0  0  0  0  0  0  0  0  0  0  0
    8.9649    2.2652    0.0000 C   0  0  0  0  0  0  0  0  0  0  0  0
    8.8366    3.0801    0.0000 O   0  0  0  0  0  0  0  0  0  0  0  0
    9.7348    1.9688    0.0000 C   0  0  0  0  0  0  0  0  0  0  0  0
   10.3764    2.4874    0.0000 C   0  0  0  0  0  0  0  0  0  0  0  0
   11.1464    2.1911    0.0000 C   0  0  0  0  0  0  0  0  0  0  0  0
   11.7880    2.7097    0.0000 C   0  0  0  0  0  0  0  0  0  0  0  0
   12.5579    2.4134    0.0000 C   0  0  0  0  0  0  0  0  0  0  0  0
   13.1995    2.9320    0.0000 C   0  0  0  0  0  0  0  0  0  0  0  0
   13.9695    2.6356    0.0000 C   0  0  0  0  0  0  0  0  0  0  0  0
   14.6111    3.1542    0.0000 C   0  0  0  0  0  0  0  0  0  0  0  0
   15.3810    2.8579    0.0000 C   0  0  0  0  0  0  0  0  0  0  0  0
   16.0226    3.3765    0.0000 C   0  0  0  0  0  0  0  0  0  0  0  0
    0.0000    0.0000    0.0000 H   0  0  0  0  0  0  0  0  0  0  0  0
    0.0000    0.0000    0.0000 H   0  0  0  0  0  0  0  0  0  0  0  0
    0.0000    0.0000    0.0000 H   0  0  0  0  0  0  0  0  0  0  0  0
    0.0000    0.0000    0.0000 H   0  0  0  0  0  0  0  0  0  0  0  0
    0.0000    0.0000    0.0000 H   0  0  0  0  0  0  0  0  0  0  0  0
    0.0000    0.0000    0.0000 H   0  0  0  0  0  0  0  0  0  0  0  0
    0.0000    0.0000    0.0000 H   0  0  0  0  0  0  0  0  0  0  0  0
    0.0000    0.0000    0.0000 H   0  0  0  0  0  0  0  0  0  0  0  0
    0.0000    0.0000    0.0000 H   0  0  0  0  0  0  0  0  0  0  0  0
    0.0000    0.0000    0.0000 H   0  0  0  0  0  0  0  0  0  0  0  0
    0.0000    0.0000    0.0000 H   0  0  0  0  0  0  0  0  0  0  0  0
    0.0000    0.0000    0.0000 H   0  0  0  0  0  0  0  0  0  0  0  0
    0.0000    0.0000    0.0000 H   0  0  0  0  0  0  0  0  0  0  0  0
    0.0000    0.0000    0.0000 H   0  0  0  0  0  0  0  0  0  0  0  0
    0.0000    0.0000    0.0000 H   0  0  0  0  0  0  0  0  0  0  0  0
    0.0000    0.0000    0.0000 H   0  0  0  0  0  0  0  0  0  0  0  0
    0.0000    0.0000    0.0000 H   0  0  0  0  0  0  0  0  0  0  0  0
    0.0000    0.0000    0.0000 H   0  0  0  0  0  0  0  0  0  0  0  0
    0.0000    0.0000    0.0000 H   0  0  0  0  0  0  0  0  0  0  0  0
    0.0000    0.0000    0.0000 H   0  0  0  0  0  0  0  0  0  0  0  0
    0.0000    0.0000    0.0000 H   0  0  0  0  0  0  0  0  0  0  0  0
    0.0000    0.0000    0.0000 H   0  0  0  0  0  0  0  0  0  0  0  0
    0.0000    0.0000    0.0000 H   0  0  0  0  0  0  0  0  0  0  0  0
    0.0000    0.0000    0.0000 H   0  0  0  0  0  0  0  0  0  0  0  0
    0.0000    0.0000    0.0000 H   0  0  0  0  0  0  0  0  0  0  0  0
    0.0000    0.0000    0.0000 H   0  0  0  0  0  0  0  0  0  0  0  0
    0.0000    0.0000    0.0000 H   0  0  0  0  0  0  0  0  0  0  0  0
    0.0000    0.0000    0.0000 H   0  0  0  0  0  0  0  0  0  0  0  0
    0.0000    0.0000    0.0000 H   0  0  0  0  0  0  0  0  0  0  0  0
    0.0000    0.0000    0.0000 H   0  0  0  0  0  0  0  0  0  0  0  0
    0.0000    0.0000    0.0000 H   0  0  0  0  0  0  0  0  0  0  0  0
    0.0000    0.0000    0.0000 H   0  0  0  0  0  0  0  0  0  0  0  0
    0.0000    0.0000    0.0000 H   0  0  0  0  0  0  0  0  0  0  0  0
  1  2  1  0
  2  3  1  0
  2  4  1  0
  5  4  1  1
  5  6  1  0
  6  7  2  0
  6  8  1  0
  8  9  1  0
  5 10  1  0
 10 11  1  0
 11 12  2  0
 11 13  1  0
 13 14  1  0
 14 15  1  0
 15 16  1  0
 16 17  1  0
 17 18  1  0
 18 19  1  0
 19 20  1  0
 20 21  1  0
 21 22  2  3
  1 23  1  0
  1 24  1  0
  1 25  1  0
  2 26  1  0
  3 27  1  0
  3 28  1  0
  3 29  1  0
  4 30  1  0
  4 31  1  0
  5 32  1  0
  9 33  1  0
  9 34  1  0
  9 35  1  0
 10 36  1  0
 13 37  1  0
 13 38  1  0
 14 39  1  0
 14 40  1  0
 15 41  1  0
 15 42  1  0
 16 43  1  0
 16 44  1  0
 17 45  1  0
 17 46  1  0
 18 47  1  0
 18 48  1  0
 19 49  1  0
 19 50  1  0
 20 51  1  0
 20 52  1  0
 21 53  1  0
 22 54  1  0
 22 55  1  0
M  END
>  <ALOGPS_LOGP>  (1) 
4.46

>  <ALOGPS_LOGS>  (1) 
-5.28

>  <ALOGPS_SOLUBILITY>  (1) 
1.65e-03 g/l

>  <DATABASE_ID>  (1) 
DB11272

>  <DATABASE_NAME>  (1) 
drugbank

>  <DRUGBANK_ID>  (1) 
DB11272

>  <DRUG_GROUPS>  (1) 
approved

>  <EXACT_MASS>  (1) 
311.246043927

>  <FORMULA>  (1) 
C18H33NO3

>  <GENERIC_NAME>  (1) 
Methyl undecenoyl leucinate

>  <INCHI_IDENTIFIER>  (1) 
InChI=1S/C18H33NO3/c1-5-6-7-8-9-10-11-12-13-17(20)19-16(14-15(2)3)18(21)22-4/h5,15-16H,1,6-14H2,2-4H3,(H,19,20)/t16-/m0/s1

>  <INCHI_KEY>  (1) 
ICMAWHHKHYZNDA-INIZCTEOSA-N

>  <JCHEM_ACCEPTOR_COUNT>  (1) 
2

>  <JCHEM_ATOM_COUNT>  (1) 
55

>  <JCHEM_AVERAGE_POLARIZABILITY>  (1) 
37.760183459977554

>  <JCHEM_BIOAVAILABILITY>  (1) 
1

>  <JCHEM_DONOR_COUNT>  (1) 
1

>  <JCHEM_FORMAL_CHARGE>  (1) 
0

>  <JCHEM_GHOSE_FILTER>  (1) 
1

>  <JCHEM_IUPAC>  (1) 
methyl (2S)-4-methyl-2-(undec-10-enamido)pentanoate

>  <JCHEM_LOGP>  (1) 
4.593236681333335

>  <JCHEM_MDDR_LIKE_RULE>  (1) 
0

>  <JCHEM_NUMBER_OF_RINGS>  (1) 
0

>  <JCHEM_PHYSIOLOGICAL_CHARGE>  (1) 
0

>  <JCHEM_PKA_STRONGEST_ACIDIC>  (1) 
12.937300679625075

>  <JCHEM_PKA_STRONGEST_BASIC>  (1) 
-1.3341887865561

>  <JCHEM_POLAR_SURFACE_AREA>  (1) 
55.4

>  <JCHEM_REFRACTIVITY>  (1) 
89.8628

>  <JCHEM_ROTATABLE_BOND_COUNT>  (1) 
14

>  <JCHEM_RULE_OF_FIVE>  (1) 
1

>  <JCHEM_TRADITIONAL_IUPAC>  (1) 
methyl (2S)-4-methyl-2-(undec-10-enamido)pentanoate

>  <JCHEM_VEBER_RULE>  (1) 
0

>  <MOLECULAR_WEIGHT>  (1) 
311.466

>  <PRODUCTS>  (1) 
Isaknox Tervina Lumiere White

>  <SMILES>  (1) 
COC(=O)[C@H](CC(C)C)NC(=O)CCCCCCCCC=C

$$$$
