
     RDKit          2D

 47 50  0  0  1  0  0  0  0  0999 V2000
    1.5712    1.6212    0.0000 C   0  0  0  0  0  0  0  0  0  0  0  0
    0.8255    1.2684    0.0000 N   0  0  0  0  0  0  0  0  0  0  0  0
    1.0572    0.3415    0.0000 C   0  0  0  0  0  0  0  0  0  0  0  0
    1.8615    0.5251    0.0000 C   0  0  0  0  0  0  0  0  0  0  0  0
    2.2195    1.2684    0.0000 C   0  0  0  0  0  0  0  0  0  0  0  0
    1.8615    2.0117    0.0000 C   0  0  0  0  0  0  0  0  0  0  0  0
    1.0572    2.1953    0.0000 C   0  0  0  0  0  0  0  0  0  0  0  0
    0.4122    1.6809    0.0000 C   0  0  0  0  0  0  0  0  0  0  0  0
    0.4122    0.8559    0.0000 C   0  0  0  0  0  0  0  0  0  0  0  0
   -0.3023    1.2684    0.0000 O   0  0  0  0  0  0  0  0  0  0  0  0
    3.0445    1.2684    0.0000 O   0  0  0  0  0  0  0  0  0  0  0  0
    3.4570    0.5539    0.0000 C   0  0  0  0  0  0  0  0  0  0  0  0
    3.0445   -0.1606    0.0000 O   0  0  0  0  0  0  0  0  0  0  0  0
    4.2820    0.5539    0.0000 C   0  0  0  0  0  0  0  0  0  0  0  0
    4.6945    1.2684    0.0000 C   0  0  0  0  0  0  0  0  0  0  0  0
    5.5195    1.2684    0.0000 O   0  0  0  0  0  0  0  0  0  0  0  0
    4.6945   -0.1606    0.0000 C   0  0  0  0  0  0  0  0  0  0  0  0
    5.5195   -0.1606    0.0000 C   0  0  0  0  0  0  0  0  0  0  0  0
    5.9320   -0.8750    0.0000 C   0  0  0  0  0  0  0  0  0  0  0  0
    5.5195   -1.5895    0.0000 C   0  0  0  0  0  0  0  0  0  0  0  0
    4.6945   -1.5895    0.0000 C   0  0  0  0  0  0  0  0  0  0  0  0
    4.2820   -0.8750    0.0000 C   0  0  0  0  0  0  0  0  0  0  0  0
    1.5712    0.9155    0.0000 C   0  0  0  0  0  0  0  0  0  0  0  0
    0.0000    0.0000    0.0000 H   0  0  0  0  0  0  0  0  0  0  0  0
    0.0000    0.0000    0.0000 H   0  0  0  0  0  0  0  0  0  0  0  0
    0.0000    0.0000    0.0000 H   0  0  0  0  0  0  0  0  0  0  0  0
    0.0000    0.0000    0.0000 H   0  0  0  0  0  0  0  0  0  0  0  0
    0.0000    0.0000    0.0000 H   0  0  0  0  0  0  0  0  0  0  0  0
    0.0000    0.0000    0.0000 H   0  0  0  0  0  0  0  0  0  0  0  0
    0.0000    0.0000    0.0000 H   0  0  0  0  0  0  0  0  0  0  0  0
    0.0000    0.0000    0.0000 H   0  0  0  0  0  0  0  0  0  0  0  0
    0.0000    0.0000    0.0000 H   0  0  0  0  0  0  0  0  0  0  0  0
    0.0000    0.0000    0.0000 H   0  0  0  0  0  0  0  0  0  0  0  0
    0.0000    0.0000    0.0000 H   0  0  0  0  0  0  0  0  0  0  0  0
    0.0000    0.0000    0.0000 H   0  0  0  0  0  0  0  0  0  0  0  0
    0.0000    0.0000    0.0000 H   0  0  0  0  0  0  0  0  0  0  0  0
    0.0000    0.0000    0.0000 H   0  0  0  0  0  0  0  0  0  0  0  0
    0.0000    0.0000    0.0000 H   0  0  0  0  0  0  0  0  0  0  0  0
    0.0000    0.0000    0.0000 H   0  0  0  0  0  0  0  0  0  0  0  0
    0.0000    0.0000    0.0000 H   0  0  0  0  0  0  0  0  0  0  0  0
    0.0000    0.0000    0.0000 H   0  0  0  0  0  0  0  0  0  0  0  0
    0.0000    0.0000    0.0000 H   0  0  0  0  0  0  0  0  0  0  0  0
    0.0000    0.0000    0.0000 H   0  0  0  0  0  0  0  0  0  0  0  0
    0.0000    0.0000    0.0000 H   0  0  0  0  0  0  0  0  0  0  0  0
    0.0000    0.0000    0.0000 H   0  0  0  0  0  0  0  0  0  0  0  0
    0.0000    0.0000    0.0000 H   0  0  0  0  0  0  0  0  0  0  0  0
    0.0000    0.0000    0.0000 H   0  0  0  0  0  0  0  0  0  0  0  0
  1  2  1  0
  2  3  1  0
  3  4  1  0
  4  5  1  0
  5  6  1  0
  7  6  1  0
  2  7  1  0
  7  8  1  0
  8  9  1  0
  3  9  1  0
  9 10  1  0
  8 10  1  0
  5 11  1  1
 11 12  1  0
 12 13  2  0
 14 12  1  6
 14 15  1  0
 15 16  1  0
 14 17  1  0
 17 18  2  0
 18 19  1  0
 19 20  2  0
 20 21  1  0
 21 22  2  0
 17 22  1  0
  2 23  1  0
  1 24  1  0
  1 25  1  0
  1 26  1  0
  3 27  1  1
  4 28  1  0
  4 29  1  0
  5 30  1  0
  6 31  1  0
  6 32  1  0
  7 33  1  1
  8 34  1  6
  9 35  1  6
 14 36  1  0
 15 37  1  0
 15 38  1  0
 16 39  1  0
 18 40  1  0
 19 41  1  0
 20 42  1  0
 21 43  1  0
 22 44  1  0
 23 45  1  0
 23 46  1  0
 23 47  1  0
M  CHG  1   2   1
M  END
>  <ALOGPS_LOGP>  (1) 
-1.49

>  <ALOGPS_LOGS>  (1) 
-4.39

>  <ALOGPS_SOLUBILITY>  (1) 
1.45e-02 g/l

>  <DATABASE_ID>  (1) 
DB11315

>  <DATABASE_NAME>  (1) 
drugbank

>  <DRUGBANK_ID>  (1) 
DB11315

>  <DRUG_GROUPS>  (1) 
approved

>  <EXACT_MASS>  (1) 
318.169984677

>  <FORMULA>  (1) 
C18H24NO4

>  <GENERIC_NAME>  (1) 
Methscopolamine

>  <INCHI_IDENTIFIER>  (1) 
InChI=1S/C18H24NO4/c1-19(2)14-8-12(9-15(19)17-16(14)23-17)22-18(21)13(10-20)11-6-4-3-5-7-11/h3-7,12-17,20H,8-10H2,1-2H3/q+1/t12-,13-,14-,15+,16-,17+/m1/s1

>  <INCHI_KEY>  (1) 
LZCOQTDXKCNBEE-IKIFYQGPSA-N

>  <JCHEM_ACCEPTOR_COUNT>  (1) 
3

>  <JCHEM_ATOM_COUNT>  (1) 
47

>  <JCHEM_AVERAGE_POLARIZABILITY>  (1) 
33.339004878428035

>  <JCHEM_BIOAVAILABILITY>  (1) 
1

>  <JCHEM_DONOR_COUNT>  (1) 
1

>  <JCHEM_FORMAL_CHARGE>  (1) 
1

>  <JCHEM_GHOSE_FILTER>  (1) 
0

>  <JCHEM_IUPAC>  (1) 
(1R,2R,4S,5S,7S)-7-{[(2S)-3-hydroxy-2-phenylpropanoyl]oxy}-9,9-dimethyl-3-oxa-9-azatricyclo[3.3.1.0^{2,4}]nonan-9-ium

>  <JCHEM_LOGP>  (1) 
-3.267384321471745

>  <JCHEM_MDDR_LIKE_RULE>  (1) 
0

>  <JCHEM_NUMBER_OF_RINGS>  (1) 
4

>  <JCHEM_PHYSIOLOGICAL_CHARGE>  (1) 
1

>  <JCHEM_PKA_STRONGEST_ACIDIC>  (1) 
15.145739794476054

>  <JCHEM_PKA_STRONGEST_BASIC>  (1) 
-2.735053413896173

>  <JCHEM_POLAR_SURFACE_AREA>  (1) 
59.06

>  <JCHEM_REFRACTIVITY>  (1) 
95.63490000000002

>  <JCHEM_ROTATABLE_BOND_COUNT>  (1) 
5

>  <JCHEM_RULE_OF_FIVE>  (1) 
1

>  <JCHEM_TRADITIONAL_IUPAC>  (1) 
(1R,2R,4S,5S,7S)-7-{[(2S)-3-hydroxy-2-phenylpropanoyl]oxy}-9,9-dimethyl-3-oxa-9-azatricyclo[3.3.1.0^{2,4}]nonan-9-ium

>  <JCHEM_VEBER_RULE>  (1) 
0

>  <MOLECULAR_WEIGHT>  (1) 
318.392

>  <PRODUCTS>  (1) 
DryMax

>  <SALTS>  (1) 
Methscopolamine nitrate

>  <SMILES>  (1) 
C[N+]1(C)[C@H]2C[C@@H](C[C@@H]1[C@H]1O[C@@H]21)OC(=O)[C@H](CO)C1=CC=CC=C1

>  <SYNONYMS>  (1) 
Methylscopolamine

$$$$
