
     RDKit          2D

 84 92  0  0  0  0  0  0  0  0999 V2000
    0.7291   -4.1107    0.0000 C   0  0  0  0  0  0  0  0  0  0  0  0
   -4.0997   -0.8133    0.0000 C   0  0  0  0  0  0  0  0  0  0  0  0
    4.0937    0.7648    0.0000 C   0  0  0  0  0  0  0  0  0  0  0  0
   -0.7103    4.1119    0.0000 C   0  0  0  0  0  0  0  0  0  0  0  0
    0.7277   -3.2857    0.0000 C   0  0  0  0  0  0  0  0  0  0  0  0
   -3.2749   -0.7926    0.0000 C   0  0  0  0  0  0  0  0  0  0  0  0
    3.2688    0.7518    0.0000 C   0  0  0  0  0  0  0  0  0  0  0  0
   -0.7101    3.2869    0.0000 C   0  0  0  0  0  0  0  0  0  0  0  0
    0.0153   -4.5244    0.0000 C   0  0  0  0  0  0  0  0  0  0  0  0
   -4.5300   -0.1095    0.0000 C   0  0  0  0  0  0  0  0  0  0  0  0
    4.5174    0.0570    0.0000 C   0  0  0  0  0  0  0  0  0  0  0  0
    0.0040    4.5246    0.0000 C   0  0  0  0  0  0  0  0  0  0  0  0
   -1.4819   -2.0624    0.0000 C   0  0  0  0  0  0  0  0  0  0  0  0
    1.5044   -2.0364    0.0000 C   0  0  0  0  0  0  0  0  0  0  0  0
   -2.0430   -1.5110    0.0000 C   0  0  0  0  0  0  0  0  0  0  0  0
    2.0558   -1.4752    0.0000 C   0  0  0  0  0  0  0  0  0  0  0  0
   -2.0393    1.4169    0.0000 C   0  0  0  0  0  0  0  0  0  0  0  0
    2.0297    1.5110    0.0000 C   0  0  0  0  0  0  0  0  0  0  0  0
   -1.4588    2.0076    0.0000 C   0  0  0  0  0  0  0  0  0  0  0  0
    1.4686    2.0624    0.0000 C   0  0  0  0  0  0  0  0  0  0  0  0
   -0.7012   -3.2881    0.0000 C   0  0  0  0  0  0  0  0  0  0  0  0
   -3.3109    0.6359    0.0000 C   0  0  0  0  0  0  0  0  0  0  0  0
    3.2913   -0.6769    0.0000 C   0  0  0  0  0  0  0  0  0  0  0  0
    0.7188    3.2873    0.0000 C   0  0  0  0  0  0  0  0  0  0  0  0
    0.0126   -2.8744    0.0000 C   0  0  0  0  0  0  0  0  0  0  0  0
   -2.8805   -0.0680    0.0000 C   0  0  0  0  0  0  0  0  0  0  0  0
    2.8676    0.0309    0.0000 C   0  0  0  0  0  0  0  0  0  0  0  0
    0.0045    2.8746    0.0000 C   0  0  0  0  0  0  0  0  0  0  0  0
   -0.6999   -4.1131    0.0000 C   0  0  0  0  0  0  0  0  0  0  0  0
   -4.1356    0.6152    0.0000 C   0  0  0  0  0  0  0  0  0  0  0  0
    4.1162   -0.6639    0.0000 C   0  0  0  0  0  0  0  0  0  0  0  0
    0.7186    4.1123    0.0000 C   0  0  0  0  0  0  0  0  0  0  0  0
   -0.7243   -1.6459    0.0000 C   0  0  0  0  0  0  0  0  0  0  0  0
    0.7106   -1.6627    0.0000 C   0  0  0  0  0  0  0  0  0  0  0  0
   -1.6690   -0.7465    0.0000 C   0  0  0  0  0  0  0  0  0  0  0  0
    1.6683   -0.6881    0.0000 C   0  0  0  0  0  0  0  0  0  0  0  0
   -1.6818    0.7174    0.0000 C   0  0  0  0  0  0  0  0  0  0  0  0
    1.6265    0.7462    0.0000 C   0  0  0  0  0  0  0  0  0  0  0  0
   -0.7239    1.6627    0.0000 C   0  0  0  0  0  0  0  0  0  0  0  0
    0.7107    1.6752    0.0000 C   0  0  0  0  0  0  0  0  0  0  0  0
    0.0112   -2.0494    0.0000 C   0  0  0  0  0  0  0  0  0  0  0  0
   -2.0558   -0.0472    0.0000 C   0  0  0  0  0  0  0  0  0  0  0  0
    2.0427    0.0179    0.0000 C   0  0  0  0  0  0  0  0  0  0  0  0
    0.0047    2.0496    0.0000 C   0  0  0  0  0  0  0  0  0  0  0  0
   -0.8480   -0.8857    0.0000 N   0  0  0  0  0  0  0  0  0  0  0  0
    0.8501   -0.8709    0.0000 N   0  0  0  0  0  0  0  0  0  0  0  0
   -0.8926    0.8706    0.0000 N   0  0  0  0  0  0  0  0  0  0  0  0
    0.8643    0.8567    0.0000 N   0  0  0  0  0  0  0  0  0  0  0  0
   -1.4137   -4.5268    0.0000 O   0  0  0  0  0  0  0  0  0  0  0  0
   -4.5660    1.3190    0.0000 O   0  0  0  0  0  0  0  0  0  0  0  0
    4.5399   -1.3718    0.0000 O   0  0  0  0  0  0  0  0  0  0  0  0
    1.4330    4.5250    0.0000 O   0  0  0  0  0  0  0  0  0  0  0  0
    0.0000    0.0000    0.0000 H   0  0  0  0  0  0  0  0  0  0  0  0
    0.0000    0.0000    0.0000 H   0  0  0  0  0  0  0  0  0  0  0  0
    0.0000    0.0000    0.0000 H   0  0  0  0  0  0  0  0  0  0  0  0
    0.0000    0.0000    0.0000 H   0  0  0  0  0  0  0  0  0  0  0  0
    0.0000    0.0000    0.0000 H   0  0  0  0  0  0  0  0  0  0  0  0
    0.0000    0.0000    0.0000 H   0  0  0  0  0  0  0  0  0  0  0  0
    0.0000    0.0000    0.0000 H   0  0  0  0  0  0  0  0  0  0  0  0
    0.0000    0.0000    0.0000 H   0  0  0  0  0  0  0  0  0  0  0  0
    0.0000    0.0000    0.0000 H   0  0  0  0  0  0  0  0  0  0  0  0
    0.0000    0.0000    0.0000 H   0  0  0  0  0  0  0  0  0  0  0  0
    0.0000    0.0000    0.0000 H   0  0  0  0  0  0  0  0  0  0  0  0
    0.0000    0.0000    0.0000 H   0  0  0  0  0  0  0  0  0  0  0  0
    0.0000    0.0000    0.0000 H   0  0  0  0  0  0  0  0  0  0  0  0
    0.0000    0.0000    0.0000 H   0  0  0  0  0  0  0  0  0  0  0  0
    0.0000    0.0000    0.0000 H   0  0  0  0  0  0  0  0  0  0  0  0
    0.0000    0.0000    0.0000 H   0  0  0  0  0  0  0  0  0  0  0  0
    0.0000    0.0000    0.0000 H   0  0  0  0  0  0  0  0  0  0  0  0
    0.0000    0.0000    0.0000 H   0  0  0  0  0  0  0  0  0  0  0  0
    0.0000    0.0000    0.0000 H   0  0  0  0  0  0  0  0  0  0  0  0
    0.0000    0.0000    0.0000 H   0  0  0  0  0  0  0  0  0  0  0  0
    0.0000    0.0000    0.0000 H   0  0  0  0  0  0  0  0  0  0  0  0
    0.0000    0.0000    0.0000 H   0  0  0  0  0  0  0  0  0  0  0  0
    0.0000    0.0000    0.0000 H   0  0  0  0  0  0  0  0  0  0  0  0
    0.0000    0.0000    0.0000 H   0  0  0  0  0  0  0  0  0  0  0  0
    0.0000    0.0000    0.0000 H   0  0  0  0  0  0  0  0  0  0  0  0
    0.0000    0.0000    0.0000 H   0  0  0  0  0  0  0  0  0  0  0  0
    0.0000    0.0000    0.0000 H   0  0  0  0  0  0  0  0  0  0  0  0
    0.0000    0.0000    0.0000 H   0  0  0  0  0  0  0  0  0  0  0  0
    0.0000    0.0000    0.0000 H   0  0  0  0  0  0  0  0  0  0  0  0
    0.0000    0.0000    0.0000 H   0  0  0  0  0  0  0  0  0  0  0  0
    0.0000    0.0000    0.0000 H   0  0  0  0  0  0  0  0  0  0  0  0
    0.0000    0.0000    0.0000 H   0  0  0  0  0  0  0  0  0  0  0  0
  5  1  2  0
  6  2  2  0
  7  3  2  0
  8  4  2  0
  9  1  1  0
 10  2  1  0
 11  3  1  0
 12  4  1  0
 15 13  2  0
 16 14  1  0
 19 17  2  0
 20 18  1  0
 25  5  1  0
 25 21  2  0
 26  6  1  0
 26 22  2  0
 27  7  1  0
 27 23  2  0
 28  8  1  0
 28 24  2  0
 29  9  2  0
 29 21  1  0
 30 10  2  0
 30 22  1  0
 31 11  2  0
 31 23  1  0
 32 12  2  0
 32 24  1  0
 33 13  1  0
 34 14  2  0
 35 15  1  0
 36 16  2  0
 37 17  1  0
 38 18  1  0
 39 19  1  0
 40 20  1  0
 41 25  1  0
 41 33  2  0
 41 34  1  0
 42 26  1  0
 42 35  1  0
 42 37  2  0
 43 27  1  0
 43 36  1  0
 43 38  2  0
 44 28  1  0
 44 39  2  0
 44 40  1  0
 45 33  1  0
 45 35  2  0
 46 34  1  0
 46 36  1  0
 47 37  1  0
 47 39  1  0
 48 38  1  0
 48 40  2  0
 49 29  1  0
 50 30  1  0
 51 31  1  0
 52 32  1  0
  1 53  1  0
  2 54  1  0
  3 55  1  0
  4 56  1  0
  5 57  1  0
  6 58  1  0
  7 59  1  0
  8 60  1  0
  9 61  1  0
 10 62  1  0
 11 63  1  0
 12 64  1  0
 13 65  1  0
 14 66  1  0
 15 67  1  0
 16 68  1  0
 17 69  1  0
 18 70  1  0
 18 71  1  0
 19 72  1  0
 20 73  1  0
 20 74  1  0
 21 75  1  0
 22 76  1  0
 23 77  1  0
 24 78  1  0
 46 79  1  0
 47 80  1  0
 49 81  1  0
 50 82  1  0
 51 83  1  0
 52 84  1  0
M  END
>  <DATABASE_ID>  (1) 
DB11630

>  <DATABASE_NAME>  (1) 
drugbank

>  <DRUGBANK_ID>  (1) 
DB11630

>  <DRUG_GROUPS>  (1) 
approved; investigational

>  <EXACT_MASS>  (1) 
680.242355526

>  <FORMULA>  (1) 
C44H32N4O4

>  <GENERIC_NAME>  (1) 
Temoporfin

>  <INCHI_IDENTIFIER>  (1) 
InChI=1S/C44H32N4O4/c49-29-9-1-5-25(21-29)41-33-13-15-35(45-33)42(26-6-2-10-30(50)22-26)37-17-19-39(47-37)44(28-8-4-12-32(52)24-28)40-20-18-38(48-40)43(36-16-14-34(41)46-36)27-7-3-11-31(51)23-27/h1-17,19,21-24,46-47,49-52H,18,20H2/b41-33-,41-34-,42-35-,42-37-,43-36-,43-38-,44-39-,44-40-

>  <INCHI_KEY>  (1) 
LYPFDBRUNKHDGX-LWQDQPMZSA-N

>  <JCHEM_ACCEPTOR_COUNT>  (1) 
6

>  <JCHEM_ATOM_COUNT>  (1) 
84

>  <JCHEM_AVERAGE_POLARIZABILITY>  (1) 
76.609938090063

>  <JCHEM_BIOAVAILABILITY>  (1) 
0

>  <JCHEM_DONOR_COUNT>  (1) 
6

>  <JCHEM_FORMAL_CHARGE>  (1) 
0

>  <JCHEM_GHOSE_FILTER>  (1) 
0

>  <JCHEM_IUPAC>  (1) 
3-[7,12,17-tris(3-hydroxyphenyl)-21,22,23,24-tetraazapentacyclo[16.2.1.1³,⁶.1⁸,¹¹.1¹³,¹⁶]tetracosa-1,3,5,7,11(23),12,14,16,18(21),19-decaen-2-yl]phenol

>  <JCHEM_LOGP>  (1) 
9.214239379999999

>  <JCHEM_MDDR_LIKE_RULE>  (1) 
0

>  <JCHEM_NUMBER_OF_RINGS>  (1) 
9

>  <JCHEM_PHYSIOLOGICAL_CHARGE>  (1) 
0

>  <JCHEM_PKA>  (1) 
9.54177918398005

>  <JCHEM_PKA_STRONGEST_ACIDIC>  (1) 
9.11580222230473

>  <JCHEM_PKA_STRONGEST_BASIC>  (1) 
5.603847114612982

>  <JCHEM_POLAR_SURFACE_AREA>  (1) 
138.28

>  <JCHEM_REFRACTIVITY>  (1) 
201.3374000000001

>  <JCHEM_ROTATABLE_BOND_COUNT>  (1) 
4

>  <JCHEM_RULE_OF_FIVE>  (1) 
0

>  <JCHEM_TRADITIONAL_IUPAC>  (1) 
3-[7,12,17-tris(3-hydroxyphenyl)-21,22,23,24-tetraazapentacyclo[16.2.1.1³,⁶.1⁸,¹¹.1¹³,¹⁶]tetracosa-1,3,5,7,11(23),12,14,16,18(21),19-decaen-2-yl]phenol

>  <JCHEM_VEBER_RULE>  (1) 
0

>  <MOLECULAR_WEIGHT>  (1) 
680.764

>  <SMILES>  (1) 
OC1=CC=CC(=C1)C-1=C2\CCC(=N2)\C(=C2/N\C(\C=C2)=C(/C2=N/C(/C=C2)=C(\C2=CC=C\-1N2)C1=CC(O)=CC=C1)C1=CC(O)=CC=C1)\C1=CC(O)=CC=C1

>  <SYNONYMS>  (1) 
2,3-dihydro-5,10,15,20-tetra(m-hydroxyphenyl)porphyrin; m-THPC; meso-tetrahydroxyphenylchlorin

$$$$
