
     RDKit          2D

 25 27  0  0  0  0  0  0  0  0999 V2000
   12.6378  -10.8093    0.0000 C   0  0  0  0  0  0  0  0  0  0  0  0
   13.3523  -10.3968    0.0000 C   0  0  0  0  0  0  0  0  0  0  0  0
   13.3523   -9.5718    0.0000 C   0  0  0  0  0  0  0  0  0  0  0  0
   12.6378   -9.1593    0.0000 N   0  0  0  0  0  0  0  0  0  0  0  0
   11.9231   -9.5718    0.0000 C   0  0  0  0  0  0  0  0  0  0  0  0
   11.9231  -10.3968    0.0000 N   0  0  0  0  0  0  0  0  0  0  0  0
   14.1370   -9.3169    0.0000 N   0  0  0  0  0  0  0  0  0  0  0  0
   14.6215   -9.9843    0.0000 C   0  0  0  0  0  0  0  0  0  0  0  0
   14.1370  -10.6517    0.0000 N   0  0  0  0  0  0  0  0  0  0  0  0
   12.6378  -11.6343    0.0000 N   0  0  0  0  0  0  0  0  0  0  0  0
   13.3523  -12.0468    0.0000 C   0  0  0  0  0  0  0  0  0  0  0  0
   13.3523  -12.8718    0.0000 C   0  0  0  0  0  0  0  0  0  0  0  0
   12.6849  -13.3568    0.0000 C   0  0  0  0  0  0  0  0  0  0  0  0
   12.9399  -14.1416    0.0000 C   0  0  0  0  0  0  0  0  0  0  0  0
   13.7648  -14.1416    0.0000 C   0  0  0  0  0  0  0  0  0  0  0  0
   14.0198  -13.3568    0.0000 O   0  0  0  0  0  0  0  0  0  0  0  0
    0.0000    0.0000    0.0000 H   0  0  0  0  0  0  0  0  0  0  0  0
    0.0000    0.0000    0.0000 H   0  0  0  0  0  0  0  0  0  0  0  0
    0.0000    0.0000    0.0000 H   0  0  0  0  0  0  0  0  0  0  0  0
    0.0000    0.0000    0.0000 H   0  0  0  0  0  0  0  0  0  0  0  0
    0.0000    0.0000    0.0000 H   0  0  0  0  0  0  0  0  0  0  0  0
    0.0000    0.0000    0.0000 H   0  0  0  0  0  0  0  0  0  0  0  0
    0.0000    0.0000    0.0000 H   0  0  0  0  0  0  0  0  0  0  0  0
    0.0000    0.0000    0.0000 H   0  0  0  0  0  0  0  0  0  0  0  0
    0.0000    0.0000    0.0000 H   0  0  0  0  0  0  0  0  0  0  0  0
  1  2  2  0
  1  6  1  0
  1 10  1  0
  2  3  1  0
  2  9  1  0
  3  4  2  0
  3  7  1  0
  4  5  1  0
  5  6  2  0
  7  8  2  0
  8  9  1  0
 10 11  1  0
 11 12  1  0
 12 13  2  0
 12 16  1  0
 13 14  1  0
 14 15  2  0
 15 16  1  0
  5 17  1  0
  8 18  1  0
  9 19  1  0
 10 20  1  0
 11 21  1  0
 11 22  1  0
 13 23  1  0
 14 24  1  0
 15 25  1  0
M  END
>  <ALOGPS_LOGP>  (1) 
0.96

>  <ALOGPS_LOGS>  (1) 
-2.36

>  <ALOGPS_SOLUBILITY>  (1) 
9.40e-01 g/l

>  <DATABASE_ID>  (1) 
DB11336

>  <DATABASE_NAME>  (1) 
drugbank

>  <DRUGBANK_ID>  (1) 
DB11336

>  <DRUG_GROUPS>  (1) 
approved

>  <EXACT_MASS>  (1) 
215.080709935

>  <FORMULA>  (1) 
C10H9N5O

>  <GENERIC_NAME>  (1) 
Kinetin

>  <INCHI_IDENTIFIER>  (1) 
InChI=1S/C10H9N5O/c1-2-7(16-3-1)4-11-9-8-10(13-5-12-8)15-6-14-9/h1-3,5-6H,4H2,(H2,11,12,13,14,15)

>  <INCHI_KEY>  (1) 
QANMHLXAZMSUEX-UHFFFAOYSA-N

>  <JCHEM_ACCEPTOR_COUNT>  (1) 
4

>  <JCHEM_AVERAGE_POLARIZABILITY>  (1) 
21.33391348276821

>  <JCHEM_BIOAVAILABILITY>  (1) 
1

>  <JCHEM_DONOR_COUNT>  (1) 
2

>  <JCHEM_FORMAL_CHARGE>  (1) 
0

>  <JCHEM_GHOSE_FILTER>  (1) 
1

>  <JCHEM_IUPAC>  (1) 
N-(furan-2-ylmethyl)-7H-purin-6-amine

>  <JCHEM_LOGP>  (1) 
0.512953612

>  <JCHEM_MDDR_LIKE_RULE>  (1) 
0

>  <JCHEM_NUMBER_OF_RINGS>  (1) 
3

>  <JCHEM_PHYSIOLOGICAL_CHARGE>  (1) 
0

>  <JCHEM_PKA>  (1) 
19.857218431563595

>  <JCHEM_PKA_STRONGEST_ACIDIC>  (1) 
10.203020403774824

>  <JCHEM_PKA_STRONGEST_BASIC>  (1) 
5.160060277933205

>  <JCHEM_POLAR_SURFACE_AREA>  (1) 
79.63

>  <JCHEM_REFRACTIVITY>  (1) 
60.71640000000001

>  <JCHEM_ROTATABLE_BOND_COUNT>  (1) 
3

>  <JCHEM_RULE_OF_FIVE>  (1) 
1

>  <JCHEM_TRADITIONAL_IUPAC>  (1) 
6 furfurylaminopurine

>  <JCHEM_VEBER_RULE>  (1) 
0

>  <MOLECULAR_WEIGHT>  (1) 
215.2114

>  <PRODUCTS>  (1) 
ObagiGentle Rejuvenati Gentle Rejuvenation

>  <SMILES>  (1) 
C(NC1=NC=NC2=C1NC=N2)C1=CC=CO1

$$$$
