
     RDKit          2D

 71 74  0  0  0  0  0  0  0  0999 V2000
    2.4435   -0.2766    0.0000 C   0  0  0  0  0  0  0  0  0  0  0  0
    2.9289   -0.9463    0.0000 N   0  0  0  0  0  0  0  0  0  0  0  0
    2.9289    0.3931    0.0000 N   0  0  0  0  0  0  0  0  0  0  0  0
    3.7151    0.1358    0.0000 C   0  0  0  0  0  0  0  0  0  0  0  0
    3.7151   -0.6842    0.0000 C   0  0  0  0  0  0  0  0  0  0  0  0
   -4.5691   -0.9900    0.0000 C   0  0  0  0  0  0  0  0  0  0  0  0
   -4.5691   -1.8150    0.0000 C   0  0  0  0  0  0  0  0  0  0  0  0
   -0.0315   -0.2766    0.0000 N   0  0  0  0  0  0  0  0  0  0  0  0
    1.6185   -0.2766    0.0000 C   0  0  0  0  0  0  0  0  0  0  0  0
   -3.7441   -0.9900    0.0000 C   0  0  0  0  0  0  0  0  0  0  0  0
   -5.2825   -2.2276    0.0000 O   0  0  0  0  0  0  0  0  0  0  0  0
    1.2060   -0.9900    0.0000 C   0  0  0  0  0  0  0  0  0  0  0  0
    1.2060    0.4367    0.0000 C   0  0  0  0  0  0  0  0  0  0  0  0
   -3.3316   -0.2766    0.0000 C   0  0  0  0  0  0  0  0  0  0  0  0
   -3.3316   -1.7034    0.0000 C   0  0  0  0  0  0  0  0  0  0  0  0
    0.3810   -0.9900    0.0000 C   0  0  0  0  0  0  0  0  0  0  0  0
    0.3810    0.4367    0.0000 C   0  0  0  0  0  0  0  0  0  0  0  0
    2.6764    1.1793    0.0000 C   0  0  0  0  0  0  0  0  0  0  0  0
   -0.8565   -0.2766    0.0000 C   0  0  0  0  0  0  0  0  0  0  0  0
   -3.8557   -2.2276    0.0000 O   0  0  0  0  0  0  0  0  0  0  0  0
   -2.0940   -0.9900    0.0000 C   0  0  0  0  0  0  0  0  0  0  0  0
   -2.5066   -0.2766    0.0000 C   0  0  0  0  0  0  0  0  0  0  0  0
   -2.5066   -1.7034    0.0000 C   0  0  0  0  0  0  0  0  0  0  0  0
   -1.2690   -0.9900    0.0000 C   0  0  0  0  0  0  0  0  0  0  0  0
    4.4285    0.5532    0.0000 C   0  0  0  0  0  0  0  0  0  0  0  0
   -5.3893   -0.9900    0.0000 C   0  0  0  0  0  0  0  0  0  0  0  0
   -4.5691   -0.1601    0.0000 C   0  0  0  0  0  0  0  0  0  0  0  0
    4.4285   -1.1016    0.0000 C   0  0  0  0  0  0  0  0  0  0  0  0
    4.0354    1.6160    0.0000 O   0  0  0  0  0  0  0  0  0  0  0  0
    3.2297    1.7908    0.0000 C   0  0  0  0  0  0  0  0  0  0  0  0
    4.5886    2.2276    0.0000 C   0  0  0  0  0  0  0  0  0  0  0  0
    5.1419    0.1358    0.0000 C   0  0  0  0  0  0  0  0  0  0  0  0
    5.1419   -0.6842    0.0000 C   0  0  0  0  0  0  0  0  0  0  0  0
    5.3893    2.0577    0.0000 C   0  0  0  0  0  0  0  0  0  0  0  0
    0.0000    0.0000    0.0000 H   0  0  0  0  0  0  0  0  0  0  0  0
    0.0000    0.0000    0.0000 H   0  0  0  0  0  0  0  0  0  0  0  0
    0.0000    0.0000    0.0000 H   0  0  0  0  0  0  0  0  0  0  0  0
    0.0000    0.0000    0.0000 H   0  0  0  0  0  0  0  0  0  0  0  0
    0.0000    0.0000    0.0000 H   0  0  0  0  0  0  0  0  0  0  0  0
    0.0000    0.0000    0.0000 H   0  0  0  0  0  0  0  0  0  0  0  0
    0.0000    0.0000    0.0000 H   0  0  0  0  0  0  0  0  0  0  0  0
    0.0000    0.0000    0.0000 H   0  0  0  0  0  0  0  0  0  0  0  0
    0.0000    0.0000    0.0000 H   0  0  0  0  0  0  0  0  0  0  0  0
    0.0000    0.0000    0.0000 H   0  0  0  0  0  0  0  0  0  0  0  0
    0.0000    0.0000    0.0000 H   0  0  0  0  0  0  0  0  0  0  0  0
    0.0000    0.0000    0.0000 H   0  0  0  0  0  0  0  0  0  0  0  0
    0.0000    0.0000    0.0000 H   0  0  0  0  0  0  0  0  0  0  0  0
    0.0000    0.0000    0.0000 H   0  0  0  0  0  0  0  0  0  0  0  0
    0.0000    0.0000    0.0000 H   0  0  0  0  0  0  0  0  0  0  0  0
    0.0000    0.0000    0.0000 H   0  0  0  0  0  0  0  0  0  0  0  0
    0.0000    0.0000    0.0000 H   0  0  0  0  0  0  0  0  0  0  0  0
    0.0000    0.0000    0.0000 H   0  0  0  0  0  0  0  0  0  0  0  0
    0.0000    0.0000    0.0000 H   0  0  0  0  0  0  0  0  0  0  0  0
    0.0000    0.0000    0.0000 H   0  0  0  0  0  0  0  0  0  0  0  0
    0.0000    0.0000    0.0000 H   0  0  0  0  0  0  0  0  0  0  0  0
    0.0000    0.0000    0.0000 H   0  0  0  0  0  0  0  0  0  0  0  0
    0.0000    0.0000    0.0000 H   0  0  0  0  0  0  0  0  0  0  0  0
    0.0000    0.0000    0.0000 H   0  0  0  0  0  0  0  0  0  0  0  0
    0.0000    0.0000    0.0000 H   0  0  0  0  0  0  0  0  0  0  0  0
    0.0000    0.0000    0.0000 H   0  0  0  0  0  0  0  0  0  0  0  0
    0.0000    0.0000    0.0000 H   0  0  0  0  0  0  0  0  0  0  0  0
    0.0000    0.0000    0.0000 H   0  0  0  0  0  0  0  0  0  0  0  0
    0.0000    0.0000    0.0000 H   0  0  0  0  0  0  0  0  0  0  0  0
    0.0000    0.0000    0.0000 H   0  0  0  0  0  0  0  0  0  0  0  0
    0.0000    0.0000    0.0000 H   0  0  0  0  0  0  0  0  0  0  0  0
    0.0000    0.0000    0.0000 H   0  0  0  0  0  0  0  0  0  0  0  0
    0.0000    0.0000    0.0000 H   0  0  0  0  0  0  0  0  0  0  0  0
    0.0000    0.0000    0.0000 H   0  0  0  0  0  0  0  0  0  0  0  0
    0.0000    0.0000    0.0000 H   0  0  0  0  0  0  0  0  0  0  0  0
    0.0000    0.0000    0.0000 H   0  0  0  0  0  0  0  0  0  0  0  0
    0.0000    0.0000    0.0000 H   0  0  0  0  0  0  0  0  0  0  0  0
  2  1  2  0
  3  1  1  0
  4  3  1  0
  5  2  1  0
  6 10  1  0
  7  6  1  0
  8 17  1  0
  9  1  1  0
 10 15  2  0
 11  7  2  0
 12  9  1  0
 13  9  1  0
 14 22  2  0
 15 23  1  0
 16 12  1  0
 17 13  1  0
 18  3  1  0
 19  8  1  0
 20  7  1  0
 21 24  1  0
 22 21  1  0
 23 21  2  0
 24 19  1  0
 25  4  2  0
 26  6  1  0
 27  6  1  0
 28  5  2  0
 29 30  1  0
 30 18  1  0
 31 29  1  0
 32 25  1  0
 33 28  1  0
 34 31  1  0
  4  5  1  0
  8 16  1  0
 32 33  2  0
 14 10  1  0
  9 35  1  0
 12 36  1  0
 12 37  1  0
 13 38  1  0
 13 39  1  0
 14 40  1  0
 15 41  1  0
 16 42  1  0
 16 43  1  0
 17 44  1  0
 17 45  1  0
 18 46  1  0
 18 47  1  0
 19 48  1  0
 19 49  1  0
 20 50  1  0
 22 51  1  0
 23 52  1  0
 24 53  1  0
 24 54  1  0
 25 55  1  0
 26 56  1  0
 26 57  1  0
 26 58  1  0
 27 59  1  0
 27 60  1  0
 27 61  1  0
 28 62  1  0
 30 63  1  0
 30 64  1  0
 31 65  1  0
 31 66  1  0
 32 67  1  0
 33 68  1  0
 34 69  1  0
 34 70  1  0
 34 71  1  0
M  END
>  <ALOGPS_LOGP>  (1) 
5.02

>  <ALOGPS_LOGS>  (1) 
-5.36

>  <ALOGPS_SOLUBILITY>  (1) 
2.03e-03 g/l

>  <DATABASE_ID>  (1) 
DB11591

>  <DATABASE_NAME>  (1) 
drugbank

>  <DRUGBANK_ID>  (1) 
DB11591

>  <DRUG_GROUPS>  (1) 
approved

>  <EXACT_MASS>  (1) 
463.283492063

>  <FORMULA>  (1) 
C28H37N3O3

>  <GENERIC_NAME>  (1) 
Bilastine

>  <INCHI_IDENTIFIER>  (1) 
InChI=1S/C28H37N3O3/c1-4-34-20-19-31-25-8-6-5-7-24(25)29-26(31)22-14-17-30(18-15-22)16-13-21-9-11-23(12-10-21)28(2,3)27(32)33/h5-12,22H,4,13-20H2,1-3H3,(H,32,33)

>  <INCHI_KEY>  (1) 
ACCMWZWAEFYUGZ-UHFFFAOYSA-N

>  <INTERNATIONAL_BRANDS>  (1) 
Bilaxten

>  <JCHEM_ACCEPTOR_COUNT>  (1) 
5

>  <JCHEM_ATOM_COUNT>  (1) 
71

>  <JCHEM_AVERAGE_POLARIZABILITY>  (1) 
54.937554754520114

>  <JCHEM_BIOAVAILABILITY>  (1) 
1

>  <JCHEM_DONOR_COUNT>  (1) 
1

>  <JCHEM_FORMAL_CHARGE>  (1) 
0

>  <JCHEM_GHOSE_FILTER>  (1) 
0

>  <JCHEM_IUPAC>  (1) 
2-[4-(2-{4-[1-(2-ethoxyethyl)-1H-1,3-benzodiazol-2-yl]piperidin-1-yl}ethyl)phenyl]-2-methylpropanoic acid

>  <JCHEM_LOGP>  (1) 
2.409230745583987

>  <JCHEM_MDDR_LIKE_RULE>  (1) 
1

>  <JCHEM_NUMBER_OF_RINGS>  (1) 
4

>  <JCHEM_PHYSIOLOGICAL_CHARGE>  (1) 
0

>  <JCHEM_PKA_STRONGEST_ACIDIC>  (1) 
4.055475334785051

>  <JCHEM_PKA_STRONGEST_BASIC>  (1) 
9.434285639876666

>  <JCHEM_POLAR_SURFACE_AREA>  (1) 
67.59

>  <JCHEM_REFRACTIVITY>  (1) 
135.57500000000002

>  <JCHEM_ROTATABLE_BOND_COUNT>  (1) 
10

>  <JCHEM_RULE_OF_FIVE>  (1) 
1

>  <JCHEM_TRADITIONAL_IUPAC>  (1) 
bilastine

>  <JCHEM_VEBER_RULE>  (1) 
0

>  <MOLECULAR_WEIGHT>  (1) 
463.622

>  <PRODUCTS>  (1) 
Blexten

>  <SMILES>  (1) 
CCOCCN1C(=NC2=CC=CC=C12)C1CCN(CCC2=CC=C(C=C2)C(C)(C)C(O)=O)CC1

$$$$
