
     RDKit          2D

111118  0  0  0  0  0  0  0  0999 V2000
   -3.9187   -0.2475    0.0000 C   0  0  0  0  0  0  0  0  0  0  0  0
   -3.9187   -1.0725    0.0000 N   0  0  0  0  0  0  0  0  0  0  0  0
   -3.2175   -1.4850    0.0000 C   0  0  0  0  0  0  0  0  0  0  0  0
   -2.5162   -1.0725    0.0000 C   0  0  0  0  0  0  0  0  0  0  0  0
   -2.5162   -0.2475    0.0000 N   0  0  0  0  0  0  0  0  0  0  0  0
   -3.2175    0.1650    0.0000 C   0  0  0  0  0  0  0  0  0  0  0  0
   -1.7737    0.1650    0.0000 C   0  0  0  0  0  0  0  0  0  0  0  0
   -4.6612   -1.4850    0.0000 C   0  0  0  0  0  0  0  0  0  0  0  0
   -5.3625   -1.0725    0.0000 C   0  0  0  0  0  0  0  0  0  0  0  0
   -5.3625   -0.2475    0.0000 C   0  0  0  0  0  0  0  0  0  0  0  0
   -6.0637    0.1650    0.0000 C   0  0  0  0  0  0  0  0  0  0  0  0
   -6.8062   -0.2475    0.0000 C   0  0  0  0  0  0  0  0  0  0  0  0
   -6.8062   -1.0725    0.0000 C   0  0  0  0  0  0  0  0  0  0  0  0
   -6.0637   -1.4850    0.0000 C   0  0  0  0  0  0  0  0  0  0  0  0
   -6.0637   -2.3100    0.0000 C   0  0  0  0  0  0  0  0  0  0  0  0
   -6.8062   -2.7225    0.0000 C   0  0  0  0  0  0  0  0  0  0  0  0
   -6.8062   -3.5475    0.0000 C   0  0  0  0  0  0  0  0  0  0  0  0
   -6.0637   -3.9600    0.0000 C   0  0  0  0  0  0  0  0  0  0  0  0
   -5.3625   -3.5475    0.0000 C   0  0  0  0  0  0  0  0  0  0  0  0
   -5.3625   -2.7225    0.0000 C   0  0  0  0  0  0  0  0  0  0  0  0
   -6.0637   -4.7850    0.0000 Cl  0  0  0  0  0  0  0  0  0  0  0  0
   -7.0950    0.3712    0.0000 C   0  0  0  0  0  0  0  0  0  0  0  0
   -7.5075   -0.3300    0.0000 C   0  0  0  0  0  0  0  0  0  0  0  0
   -1.0725   -0.2475    0.0000 C   0  0  0  0  0  0  0  0  0  0  0  0
   -0.3300    0.1237    0.0000 C   0  0  0  0  0  0  0  0  0  0  0  0
   -0.3300    1.0312    0.0000 C   0  0  0  0  0  0  0  0  0  0  0  0
    0.3712    1.4437    0.0000 C   0  0  0  0  0  0  0  0  0  0  0  0
    1.0725    1.0312    0.0000 N   0  0  0  0  0  0  0  0  0  0  0  0
    1.7737    1.4025    0.0000 S   0  0  0  0  0  0  0  0  0  0  0  0
    2.4750    0.9900    0.0000 C   0  0  0  0  0  0  0  0  0  0  0  0
    0.3712    2.2275    0.0000 O   0  0  0  0  0  0  0  0  0  0  0  0
    2.4750    0.1650    0.0000 C   0  0  0  0  0  0  0  0  0  0  0  0
    3.2175   -0.2475    0.0000 C   0  0  0  0  0  0  0  0  0  0  0  0
    3.9187    0.1650    0.0000 C   0  0  0  0  0  0  0  0  0  0  0  0
    3.9187    0.9900    0.0000 C   0  0  0  0  0  0  0  0  0  0  0  0
    3.2175    1.4025    0.0000 C   0  0  0  0  0  0  0  0  0  0  0  0
    1.3612    2.1450    0.0000 O   0  0  0  0  0  0  0  0  0  0  0  0
    2.1862    2.1450    0.0000 O   0  0  0  0  0  0  0  0  0  0  0  0
    4.6612    1.4437    0.0000 N   0  0  0  0  0  0  0  0  0  0  0  0
    4.6612   -0.2475    0.0000 N   0  0  0  0  0  0  0  0  0  0  0  0
   -1.0312    1.4025    0.0000 C   0  0  0  0  0  0  0  0  0  0  0  0
   -1.7737    0.9900    0.0000 C   0  0  0  0  0  0  0  0  0  0  0  0
   -1.0312    2.2275    0.0000 O   0  0  0  0  0  0  0  0  0  0  0  0
   -1.7737    2.6400    0.0000 C   0  0  0  0  0  0  0  0  0  0  0  0
   -1.7325    3.4650    0.0000 C   0  0  0  0  0  0  0  0  0  0  0  0
   -2.4750    3.8775    0.0000 C   0  0  0  0  0  0  0  0  0  0  0  0
   -3.1762    3.4650    0.0000 C   0  0  0  0  0  0  0  0  0  0  0  0
   -3.1762    2.6400    0.0000 N   0  0  0  0  0  0  0  0  0  0  0  0
   -2.4750    2.2275    0.0000 C   0  0  0  0  0  0  0  0  0  0  0  0
   -2.6400    4.7025    0.0000 C   0  0  0  0  0  0  0  0  0  0  0  0
   -3.4650    4.7850    0.0000 C   0  0  0  0  0  0  0  0  0  0  0  0
   -3.7950    4.0012    0.0000 N   0  0  0  0  0  0  0  0  0  0  0  0
    5.3625    0.1650    0.0000 C   0  0  0  0  0  0  0  0  0  0  0  0
    6.1050   -0.2475    0.0000 C   0  0  0  0  0  0  0  0  0  0  0  0
    6.1050   -1.0725    0.0000 C   0  0  0  0  0  0  0  0  0  0  0  0
    6.8062   -1.4850    0.0000 C   0  0  0  0  0  0  0  0  0  0  0  0
    7.5075   -1.0725    0.0000 O   0  0  0  0  0  0  0  0  0  0  0  0
    7.5075   -0.2475    0.0000 C   0  0  0  0  0  0  0  0  0  0  0  0
    6.8062    0.1650    0.0000 C   0  0  0  0  0  0  0  0  0  0  0  0
    4.6612    2.2687    0.0000 O   0  0  0  0  0  0  0  0  0  0  0  0
    5.3625    1.0725    0.0000 O   0  0  0  0  0  0  0  0  0  0  0  0
    0.0000    0.0000    0.0000 H   0  0  0  0  0  0  0  0  0  0  0  0
    0.0000    0.0000    0.0000 H   0  0  0  0  0  0  0  0  0  0  0  0
    0.0000    0.0000    0.0000 H   0  0  0  0  0  0  0  0  0  0  0  0
    0.0000    0.0000    0.0000 H   0  0  0  0  0  0  0  0  0  0  0  0
    0.0000    0.0000    0.0000 H   0  0  0  0  0  0  0  0  0  0  0  0
    0.0000    0.0000    0.0000 H   0  0  0  0  0  0  0  0  0  0  0  0
    0.0000    0.0000    0.0000 H   0  0  0  0  0  0  0  0  0  0  0  0
    0.0000    0.0000    0.0000 H   0  0  0  0  0  0  0  0  0  0  0  0
    0.0000    0.0000    0.0000 H   0  0  0  0  0  0  0  0  0  0  0  0
    0.0000    0.0000    0.0000 H   0  0  0  0  0  0  0  0  0  0  0  0
    0.0000    0.0000    0.0000 H   0  0  0  0  0  0  0  0  0  0  0  0
    0.0000    0.0000    0.0000 H   0  0  0  0  0  0  0  0  0  0  0  0
    0.0000    0.0000    0.0000 H   0  0  0  0  0  0  0  0  0  0  0  0
    0.0000    0.0000    0.0000 H   0  0  0  0  0  0  0  0  0  0  0  0
    0.0000    0.0000    0.0000 H   0  0  0  0  0  0  0  0  0  0  0  0
    0.0000    0.0000    0.0000 H   0  0  0  0  0  0  0  0  0  0  0  0
    0.0000    0.0000    0.0000 H   0  0  0  0  0  0  0  0  0  0  0  0
    0.0000    0.0000    0.0000 H   0  0  0  0  0  0  0  0  0  0  0  0
    0.0000    0.0000    0.0000 H   0  0  0  0  0  0  0  0  0  0  0  0
    0.0000    0.0000    0.0000 H   0  0  0  0  0  0  0  0  0  0  0  0
    0.0000    0.0000    0.0000 H   0  0  0  0  0  0  0  0  0  0  0  0
    0.0000    0.0000    0.0000 H   0  0  0  0  0  0  0  0  0  0  0  0
    0.0000    0.0000    0.0000 H   0  0  0  0  0  0  0  0  0  0  0  0
    0.0000    0.0000    0.0000 H   0  0  0  0  0  0  0  0  0  0  0  0
    0.0000    0.0000    0.0000 H   0  0  0  0  0  0  0  0  0  0  0  0
    0.0000    0.0000    0.0000 H   0  0  0  0  0  0  0  0  0  0  0  0
    0.0000    0.0000    0.0000 H   0  0  0  0  0  0  0  0  0  0  0  0
    0.0000    0.0000    0.0000 H   0  0  0  0  0  0  0  0  0  0  0  0
    0.0000    0.0000    0.0000 H   0  0  0  0  0  0  0  0  0  0  0  0
    0.0000    0.0000    0.0000 H   0  0  0  0  0  0  0  0  0  0  0  0
    0.0000    0.0000    0.0000 H   0  0  0  0  0  0  0  0  0  0  0  0
    0.0000    0.0000    0.0000 H   0  0  0  0  0  0  0  0  0  0  0  0
    0.0000    0.0000    0.0000 H   0  0  0  0  0  0  0  0  0  0  0  0
    0.0000    0.0000    0.0000 H   0  0  0  0  0  0  0  0  0  0  0  0
    0.0000    0.0000    0.0000 H   0  0  0  0  0  0  0  0  0  0  0  0
    0.0000    0.0000    0.0000 H   0  0  0  0  0  0  0  0  0  0  0  0
    0.0000    0.0000    0.0000 H   0  0  0  0  0  0  0  0  0  0  0  0
    0.0000    0.0000    0.0000 H   0  0  0  0  0  0  0  0  0  0  0  0
    0.0000    0.0000    0.0000 H   0  0  0  0  0  0  0  0  0  0  0  0
    0.0000    0.0000    0.0000 H   0  0  0  0  0  0  0  0  0  0  0  0
    0.0000    0.0000    0.0000 H   0  0  0  0  0  0  0  0  0  0  0  0
    0.0000    0.0000    0.0000 H   0  0  0  0  0  0  0  0  0  0  0  0
    0.0000    0.0000    0.0000 H   0  0  0  0  0  0  0  0  0  0  0  0
    0.0000    0.0000    0.0000 H   0  0  0  0  0  0  0  0  0  0  0  0
    0.0000    0.0000    0.0000 H   0  0  0  0  0  0  0  0  0  0  0  0
    0.0000    0.0000    0.0000 H   0  0  0  0  0  0  0  0  0  0  0  0
    0.0000    0.0000    0.0000 H   0  0  0  0  0  0  0  0  0  0  0  0
    0.0000    0.0000    0.0000 H   0  0  0  0  0  0  0  0  0  0  0  0
    0.0000    0.0000    0.0000 H   0  0  0  0  0  0  0  0  0  0  0  0
    0.0000    0.0000    0.0000 H   0  0  0  0  0  0  0  0  0  0  0  0
  1  2  1  0
  2  3  1  0
  3  4  1  0
  4  5  1  0
  5  6  1  0
  1  6  1  0
  5  7  1  0
  2  8  1  0
  8  9  1  0
  9 10  1  0
 10 11  1  0
 11 12  1  0
 12 13  1  0
 13 14  1  0
  9 14  2  0
 14 15  1  0
 15 16  2  0
 16 17  1  0
 17 18  2  0
 18 19  1  0
 19 20  2  0
 15 20  1  0
 18 21  1  0
 12 22  1  0
 12 23  1  0
  7 24  2  0
 24 25  1  0
 26 27  1  0
 27 28  1  0
 28 29  1  0
 29 30  1  0
 27 31  2  0
 30 32  2  0
 32 33  1  0
 33 34  2  0
 34 35  1  0
 35 36  2  0
 30 36  1  0
 29 37  2  0
 29 38  2  0
 35 39  1  0
 34 40  1  0
 25 26  2  0
 26 41  1  0
 41 42  2  0
  7 42  1  0
 41 43  1  0
 43 44  1  0
 44 45  2  0
 45 46  1  0
 46 47  2  0
 47 48  1  0
 48 49  2  0
 44 49  1  0
 46 50  1  0
 50 51  2  0
 51 52  1  0
 47 52  1  0
 40 53  1  0
 53 54  1  0
 54 55  1  0
 55 56  1  0
 56 57  1  0
 57 58  1  0
 58 59  1  0
 54 59  1  0
 39 60  2  0
 39 61  1  0
  1 62  1  0
  1 63  1  0
  3 64  1  0
  3 65  1  0
  4 66  1  0
  4 67  1  0
  6 68  1  0
  6 69  1  0
  8 70  1  0
  8 71  1  0
 10 72  1  0
 10 73  1  0
 11 74  1  0
 11 75  1  0
 13 76  1  0
 13 77  1  0
 16 78  1  0
 17 79  1  0
 19 80  1  0
 20 81  1  0
 22 82  1  0
 22 83  1  0
 22 84  1  0
 23 85  1  0
 23 86  1  0
 23 87  1  0
 24 88  1  0
 25 89  1  0
 28 90  1  0
 32 91  1  0
 33 92  1  0
 36 93  1  0
 40 94  1  0
 42 95  1  0
 45 96  1  0
 49 97  1  0
 50 98  1  0
 51 99  1  0
 52100  1  0
 53101  1  0
 53102  1  0
 54103  1  0
 55104  1  0
 55105  1  0
 56106  1  0
 56107  1  0
 58108  1  0
 58109  1  0
 59110  1  0
 59111  1  0
M  CHG  2  39   1  61  -1
M  END
>  <ALOGPS_LOGP>  (1) 
6.92

>  <ALOGPS_LOGS>  (1) 
-5.97

>  <ALOGPS_SOLUBILITY>  (1) 
9.33e-04 g/l

>  <DATABASE_ID>  (1) 
DB11581

>  <DATABASE_NAME>  (1) 
drugbank

>  <DRUGBANK_ID>  (1) 
DB11581

>  <DRUG_GROUPS>  (1) 
approved

>  <EXACT_MASS>  (1) 
867.3180959

>  <FORMULA>  (1) 
C45H50ClN7O7S

>  <GENERIC_NAME>  (1) 
Venetoclax

>  <INCHI_IDENTIFIER>  (1) 
InChI=1S/C45H50ClN7O7S/c1-45(2)15-11-33(39(26-45)31-3-5-34(46)6-4-31)29-51-17-19-52(20-18-51)35-7-9-38(42(24-35)60-36-23-32-12-16-47-43(32)49-28-36)44(54)50-61(57,58)37-8-10-40(41(25-37)53(55)56)48-27-30-13-21-59-22-14-30/h3-10,12,16,23-25,28,30,48H,11,13-15,17-22,26-27,29H2,1-2H3,(H,47,49)(H,50,54)

>  <INCHI_KEY>  (1) 
LQBVNQSMGBZMKD-UHFFFAOYSA-N

>  <JCHEM_ACCEPTOR_COUNT>  (1) 
10

>  <JCHEM_ATOM_COUNT>  (1) 
111

>  <JCHEM_AVERAGE_POLARIZABILITY>  (1) 
93.95388281221933

>  <JCHEM_BIOAVAILABILITY>  (1) 
0

>  <JCHEM_DONOR_COUNT>  (1) 
3

>  <JCHEM_FORMAL_CHARGE>  (1) 
0

>  <JCHEM_GHOSE_FILTER>  (1) 
0

>  <JCHEM_IUPAC>  (1) 
4-(4-{[2-(4-chlorophenyl)-4,4-dimethylcyclohex-1-en-1-yl]methyl}piperazin-1-yl)-N-(3-nitro-4-{[(oxan-4-yl)methyl]amino}benzenesulfonyl)-2-{1H-pyrrolo[2,3-b]pyridin-5-yloxy}benzamide

>  <JCHEM_LOGP>  (1) 
6.762158637742074

>  <JCHEM_MDDR_LIKE_RULE>  (1) 
1

>  <JCHEM_NUMBER_OF_RINGS>  (1) 
8

>  <JCHEM_PHYSIOLOGICAL_CHARGE>  (1) 
0

>  <JCHEM_PKA>  (1) 
13.574023476501122

>  <JCHEM_PKA_STRONGEST_ACIDIC>  (1) 
4.191982326101581

>  <JCHEM_PKA_STRONGEST_BASIC>  (1) 
7.955635070610022

>  <JCHEM_POLAR_SURFACE_AREA>  (1) 
172.03

>  <JCHEM_REFRACTIVITY>  (1) 
238.5852999999999

>  <JCHEM_ROTATABLE_BOND_COUNT>  (1) 
12

>  <JCHEM_RULE_OF_FIVE>  (1) 
0

>  <JCHEM_TRADITIONAL_IUPAC>  (1) 
4-(4-{[2-(4-chlorophenyl)-4,4-dimethylcyclohex-1-en-1-yl]methyl}piperazin-1-yl)-N-{3-nitro-4-[(oxan-4-ylmethyl)amino]benzenesulfonyl}-2-{1H-pyrrolo[2,3-b]pyridin-5-yloxy}benzamide

>  <JCHEM_VEBER_RULE>  (1) 
0

>  <MOLECULAR_WEIGHT>  (1) 
868.45

>  <PRODUCTS>  (1) 
Venclexta

>  <SMILES>  (1) 
CC1(C)CCC(CN2CCN(CC2)C2=CC=C(C(=O)NS(=O)(=O)C3=CC=C(NCC4CCOCC4)C(=C3)[N+]([O-])=O)C(OC3=CN=C4NC=CC4=C3)=C2)=C(C1)C1=CC=C(Cl)C=C1

>  <SYNONYMS>  (1) 
4-{4-[(4'-chloro-5,5-dimethyl[3,4,5,6-tetrahydro[1,1'-biphenyl]]-2-yl)methyl]piperazin-1-yl}-N-(3-nitro-4-{[(oxan-4-yl)methyl]amino}benzene-1-sulfonyl)-2-[(1H-pyrrolo[2,3-b]pyridin-5-yl)oxy]benzamide

$$$$
