
     RDKit          2D

 57 59  0  0  1  0  0  0  0  0999 V2000
   11.3948    0.1634    0.0000 O   0  0  0  0  0  0  0  0  0  0  0  0
    9.2379   -0.2205    0.0000 O   0  0  0  0  0  0  0  0  0  0  0  0
    4.9509   -1.0455    0.0000 O   0  0  0  0  0  0  0  0  0  0  0  0
    2.0930   -0.2205    0.0000 O   0  0  0  0  0  0  0  0  0  0  0  0
    2.8075    1.0170    0.0000 O   0  0  0  0  0  0  0  0  0  0  0  0
    2.0930   -2.6956    0.0000 O   0  0  0  0  0  0  0  0  0  0  0  0
    3.5220   -2.6956    0.0000 O   0  0  0  0  0  0  0  0  0  0  0  0
    9.9524    1.0170    0.0000 N   0  0  0  0  0  0  0  0  0  0  0  0
    9.9524    2.6670    0.0000 N   0  0  0  0  0  0  0  0  0  0  0  0
    7.8089    1.4295    0.0000 N   0  0  0  0  0  0  0  0  0  0  0  0
   11.4044    2.6957    0.0000 N   0  0  0  0  0  0  0  0  0  0  0  0
   12.1519    1.4123    0.0000 N   0  0  0  0  0  0  0  0  0  0  0  0
    4.2365    0.1920    0.0000 N   0  0  0  0  0  0  0  0  0  0  0  0
   12.8648    2.6869    0.0000 N   0  0  0  0  0  0  0  0  0  0  0  0
    9.2379    1.4295    0.0000 C   0  0  0  0  0  0  0  0  0  0  0  0
    9.2379    2.2545    0.0000 C   0  0  0  0  0  0  0  0  0  0  0  0
    8.5234    1.0170    0.0000 C   0  0  0  0  0  0  0  0  0  0  0  0
   10.6668    1.4295    0.0000 C   0  0  0  0  0  0  0  0  0  0  0  0
   10.6668    2.2545    0.0000 C   0  0  0  0  0  0  0  0  0  0  0  0
   11.4044    0.9884    0.0000 C   0  0  0  0  0  0  0  0  0  0  0  0
    9.9524    0.1920    0.0000 C   0  0  0  0  0  0  0  0  0  0  0  0
    7.0944    1.0170    0.0000 C   0  0  0  0  0  0  0  0  0  0  0  0
   12.1519    2.2717    0.0000 C   0  0  0  0  0  0  0  0  0  0  0  0
    6.3799    1.4295    0.0000 C   0  0  0  0  0  0  0  0  0  0  0  0
    7.0944    0.1920    0.0000 C   0  0  0  0  0  0  0  0  0  0  0  0
    3.5220   -0.2205    0.0000 C   0  0  0  0  0  0  0  0  0  0  0  0
    3.5220   -1.0455    0.0000 C   0  0  0  0  0  0  0  0  0  0  0  0
    5.6655    0.1920    0.0000 C   0  0  0  0  0  0  0  0  0  0  0  0
    5.6655    1.0170    0.0000 C   0  0  0  0  0  0  0  0  0  0  0  0
    6.3799   -0.2205    0.0000 C   0  0  0  0  0  0  0  0  0  0  0  0
    4.9509   -0.2205    0.0000 C   0  0  0  0  0  0  0  0  0  0  0  0
    2.8075   -1.4581    0.0000 C   0  0  0  0  0  0  0  0  0  0  0  0
    2.8075    0.1920    0.0000 C   0  0  0  0  0  0  0  0  0  0  0  0
    2.8075   -2.2831    0.0000 C   0  0  0  0  0  0  0  0  0  0  0  0
    0.0000    0.0000    0.0000 H   0  0  0  0  0  0  0  0  0  0  0  0
    0.0000    0.0000    0.0000 H   0  0  0  0  0  0  0  0  0  0  0  0
    0.0000    0.0000    0.0000 H   0  0  0  0  0  0  0  0  0  0  0  0
    0.0000    0.0000    0.0000 H   0  0  0  0  0  0  0  0  0  0  0  0
    0.0000    0.0000    0.0000 H   0  0  0  0  0  0  0  0  0  0  0  0
    0.0000    0.0000    0.0000 H   0  0  0  0  0  0  0  0  0  0  0  0
    0.0000    0.0000    0.0000 H   0  0  0  0  0  0  0  0  0  0  0  0
    0.0000    0.0000    0.0000 H   0  0  0  0  0  0  0  0  0  0  0  0
    0.0000    0.0000    0.0000 H   0  0  0  0  0  0  0  0  0  0  0  0
    0.0000    0.0000    0.0000 H   0  0  0  0  0  0  0  0  0  0  0  0
    0.0000    0.0000    0.0000 H   0  0  0  0  0  0  0  0  0  0  0  0
    0.0000    0.0000    0.0000 H   0  0  0  0  0  0  0  0  0  0  0  0
    0.0000    0.0000    0.0000 H   0  0  0  0  0  0  0  0  0  0  0  0
    0.0000    0.0000    0.0000 H   0  0  0  0  0  0  0  0  0  0  0  0
    0.0000    0.0000    0.0000 H   0  0  0  0  0  0  0  0  0  0  0  0
    0.0000    0.0000    0.0000 H   0  0  0  0  0  0  0  0  0  0  0  0
    0.0000    0.0000    0.0000 H   0  0  0  0  0  0  0  0  0  0  0  0
    0.0000    0.0000    0.0000 H   0  0  0  0  0  0  0  0  0  0  0  0
    0.0000    0.0000    0.0000 H   0  0  0  0  0  0  0  0  0  0  0  0
    0.0000    0.0000    0.0000 H   0  0  0  0  0  0  0  0  0  0  0  0
    0.0000    0.0000    0.0000 H   0  0  0  0  0  0  0  0  0  0  0  0
    0.0000    0.0000    0.0000 H   0  0  0  0  0  0  0  0  0  0  0  0
    0.0000    0.0000    0.0000 H   0  0  0  0  0  0  0  0  0  0  0  0
  1 20  2  0
  2 21  2  0
  3 31  2  0
  4 33  1  0
  5 33  2  0
  6 34  1  0
  7 34  2  0
  8 15  1  0
  8 18  1  0
  8 21  1  0
  9 16  1  0
  9 19  1  0
 10 17  1  0
 10 22  1  0
 11 19  1  0
 11 23  1  0
 12 20  1  0
 12 23  2  0
 26 13  1  6
 13 31  1  0
 14 23  1  0
 15 16  1  0
 15 17  1  1
 18 19  2  0
 18 20  1  0
 22 24  2  0
 22 25  1  0
 24 29  1  0
 25 30  2  0
 26 27  1  0
 26 33  1  0
 27 32  1  0
 28 29  2  0
 28 30  1  0
 28 31  1  0
 32 34  1  0
  4 35  1  0
  6 36  1  0
  9 37  1  0
 10 38  1  0
 11 39  1  0
 13 40  1  0
 14 41  1  0
 14 42  1  0
 15 43  1  0
 16 44  1  0
 16 45  1  0
 17 46  1  0
 17 47  1  0
 21 48  1  0
 24 49  1  0
 25 50  1  0
 26 51  1  0
 27 52  1  0
 27 53  1  0
 29 54  1  0
 30 55  1  0
 32 56  1  0
 32 57  1  0
M  END
>  <ALOGPS_LOGP>  (1) 
-1.06

>  <ALOGPS_LOGS>  (1) 
-3.20

>  <ALOGPS_SOLUBILITY>  (1) 
3.00e-01 g/l

>  <DATABASE_ID>  (1) 
DB11596

>  <DATABASE_NAME>  (1) 
drugbank

>  <DRUGBANK_ID>  (1) 
DB11596

>  <DRUG_GROUPS>  (1) 
approved

>  <EXACT_MASS>  (1) 
473.165896125

>  <FORMULA>  (1) 
C20H23N7O7

>  <GENERIC_NAME>  (1) 
Levoleucovorin

>  <INCHI_IDENTIFIER>  (1) 
InChI=1S/C20H23N7O7/c21-20-25-16-15(18(32)26-20)27(9-28)12(8-23-16)7-22-11-3-1-10(2-4-11)17(31)24-13(19(33)34)5-6-14(29)30/h1-4,9,12-13,22H,5-8H2,(H,24,31)(H,29,30)(H,33,34)(H4,21,23,25,26,32)/t12-,13-/m0/s1

>  <INCHI_KEY>  (1) 
VVIAGPKUTFNRDU-STQMWFEESA-N

>  <JCHEM_ACCEPTOR_COUNT>  (1) 
12

>  <JCHEM_AVERAGE_POLARIZABILITY>  (1) 
44.584685333652445

>  <JCHEM_BIOAVAILABILITY>  (1) 
0

>  <JCHEM_DONOR_COUNT>  (1) 
7

>  <JCHEM_FORMAL_CHARGE>  (1) 
0

>  <JCHEM_GHOSE_FILTER>  (1) 
0

>  <JCHEM_IUPAC>  (1) 
(2S)-2-{[4-({[(6S)-2-amino-5-formyl-4-oxo-1,4,5,6,7,8-hexahydropteridin-6-yl]methyl}amino)phenyl]formamido}pentanedioic acid

>  <JCHEM_LOGP>  (1) 
-2.8462940204550526

>  <JCHEM_MDDR_LIKE_RULE>  (1) 
1

>  <JCHEM_NUMBER_OF_RINGS>  (1) 
3

>  <JCHEM_PHYSIOLOGICAL_CHARGE>  (1) 
-2

>  <JCHEM_PKA>  (1) 
3.9707112558593365

>  <JCHEM_PKA_STRONGEST_ACIDIC>  (1) 
3.2672794357042907

>  <JCHEM_PKA_STRONGEST_BASIC>  (1) 
2.6855631231544486

>  <JCHEM_POLAR_SURFACE_AREA>  (1) 
215.55

>  <JCHEM_REFRACTIVITY>  (1) 
126.462

>  <JCHEM_ROTATABLE_BOND_COUNT>  (1) 
9

>  <JCHEM_RULE_OF_FIVE>  (1) 
0

>  <JCHEM_TRADITIONAL_IUPAC>  (1) 
(2S)-2-{[4-({[(6S)-2-amino-5-formyl-4-oxo-1,6,7,8-tetrahydropteridin-6-yl]methyl}amino)phenyl]formamido}pentanedioic acid

>  <JCHEM_VEBER_RULE>  (1) 
0

>  <MOLECULAR_WEIGHT>  (1) 
473.4393

>  <PRODUCTS>  (1) 
Fusilev; Levoleucovorin; Levoleucovorin Calcium

>  <SALTS>  (1) 
Levoleucovorin calcium; Levoleucovorin calcium pentahydrate; Levoleucovorin disodium

>  <SMILES>  (1) 
NC1=NC(=O)C2=C(NC[C@H](CNC3=CC=C(C=C3)C(=O)N[C@@H](CCC(O)=O)C(O)=O)N2C=O)N1

>  <SYNONYMS>  (1) 
(6S)-5-Formyl-5,6,7,8-tetrahydrofolic acid; (6S)-5-formyltetrahydrofolic acid; (6S)-Folinic acid; (6S)-Leucovorin; (S)-Leucovorin; Citrovorum factor; L-Folinic acid; Levofolene; Levofolinic acid; N-[4-({[(6S)-2-amino-5-formyl-4-oxo-1,4,5,6,7,8-hexahydropteridin-6-yl]methyl}amino)benzoyl]-L-glutamic acid

$$$$
