
     RDKit          2D

 60 63  0  0  0  0  0  0  0  0999 V2000
   -3.9296    0.2896    0.0000 C   0  0  0  0  0  0  0  0  0  0  0  0
   -4.6441   -0.1228    0.0000 C   0  0  0  0  0  0  0  0  0  0  0  0
   -4.6441   -0.9478    0.0000 C   0  0  0  0  0  0  0  0  0  0  0  0
   -3.9296   -1.3602    0.0000 C   0  0  0  0  0  0  0  0  0  0  0  0
   -3.2151   -0.9478    0.0000 C   0  0  0  0  0  0  0  0  0  0  0  0
   -3.2151   -0.1228    0.0000 C   0  0  0  0  0  0  0  0  0  0  0  0
   -5.3586   -1.3602    0.0000 Cl  0  0  0  0  0  0  0  0  0  0  0  0
   -2.5006    0.2896    0.0000 C   0  0  0  0  0  0  0  0  0  0  0  0
   -1.7862   -0.1227    0.0000 O   0  0  0  0  0  0  0  0  0  0  0  0
   -2.0881    1.0041    0.0000 C   0  0  0  0  0  0  0  0  0  0  0  0
   -1.0717    0.2898    0.0000 C   0  0  0  0  0  0  0  0  0  0  0  0
   -0.3572   -0.1228    0.0000 C   0  0  0  0  0  0  0  0  0  0  0  0
    0.3572    0.2896    0.0000 C   0  0  0  0  0  0  0  0  0  0  0  0
    0.3571    1.1147    0.0000 N   0  0  0  0  0  0  0  0  0  0  0  0
   -0.3572    1.5273    0.0000 C   0  0  0  0  0  0  0  0  0  0  0  0
   -1.0717    1.1147    0.0000 N   0  0  0  0  0  0  0  0  0  0  0  0
   -0.3572    2.3522    0.0000 N   0  0  0  0  0  0  0  0  0  0  0  0
   -2.6715    1.5876    0.0000 F   0  0  0  0  0  0  0  0  0  0  0  0
   -1.5048    1.5876    0.0000 F   0  0  0  0  0  0  0  0  0  0  0  0
   -2.0881    1.8292    0.0000 F   0  0  0  0  0  0  0  0  0  0  0  0
    1.0716   -0.1228    0.0000 C   0  0  0  0  0  0  0  0  0  0  0  0
    1.0716   -0.9478    0.0000 C   0  0  0  0  0  0  0  0  0  0  0  0
    1.7862   -1.3602    0.0000 C   0  0  0  0  0  0  0  0  0  0  0  0
    2.5006   -0.9478    0.0000 C   0  0  0  0  0  0  0  0  0  0  0  0
    2.5006   -0.1227    0.0000 C   0  0  0  0  0  0  0  0  0  0  0  0
    1.7862    0.2898    0.0000 C   0  0  0  0  0  0  0  0  0  0  0  0
    3.2151   -1.3602    0.0000 C   0  0  0  0  0  0  0  0  0  0  0  0
    3.9296   -0.9477    0.0000 C   0  0  0  0  0  0  0  0  0  0  0  0
    4.6440   -1.3602    0.0000 C   0  0  0  0  0  0  0  0  0  0  0  0
    5.3585   -0.9477    0.0000 O   0  0  0  0  0  0  0  0  0  0  0  0
    4.6440   -2.1852    0.0000 O   0  0  0  0  0  0  0  0  0  0  0  0
    4.3421   -0.2332    0.0000 N   0  0  0  0  0  0  0  0  0  0  0  0
   -2.5006   -1.3602    0.0000 N   0  0  0  0  0  0  0  0  0  0  0  0
   -2.4144   -2.1807    0.0000 C   0  0  0  0  0  0  0  0  0  0  0  0
   -1.6075   -2.3523    0.0000 C   0  0  0  0  0  0  0  0  0  0  0  0
   -1.1950   -1.6378    0.0000 C   0  0  0  0  0  0  0  0  0  0  0  0
   -1.7470   -1.0247    0.0000 N   0  0  0  0  0  0  0  0  0  0  0  0
   -0.3745   -1.5516    0.0000 C   0  0  0  0  0  0  0  0  0  0  0  0
    0.0000    0.0000    0.0000 H   0  0  0  0  0  0  0  0  0  0  0  0
    0.0000    0.0000    0.0000 H   0  0  0  0  0  0  0  0  0  0  0  0
    0.0000    0.0000    0.0000 H   0  0  0  0  0  0  0  0  0  0  0  0
    0.0000    0.0000    0.0000 H   0  0  0  0  0  0  0  0  0  0  0  0
    0.0000    0.0000    0.0000 H   0  0  0  0  0  0  0  0  0  0  0  0
    0.0000    0.0000    0.0000 H   0  0  0  0  0  0  0  0  0  0  0  0
    0.0000    0.0000    0.0000 H   0  0  0  0  0  0  0  0  0  0  0  0
    0.0000    0.0000    0.0000 H   0  0  0  0  0  0  0  0  0  0  0  0
    0.0000    0.0000    0.0000 H   0  0  0  0  0  0  0  0  0  0  0  0
    0.0000    0.0000    0.0000 H   0  0  0  0  0  0  0  0  0  0  0  0
    0.0000    0.0000    0.0000 H   0  0  0  0  0  0  0  0  0  0  0  0
    0.0000    0.0000    0.0000 H   0  0  0  0  0  0  0  0  0  0  0  0
    0.0000    0.0000    0.0000 H   0  0  0  0  0  0  0  0  0  0  0  0
    0.0000    0.0000    0.0000 H   0  0  0  0  0  0  0  0  0  0  0  0
    0.0000    0.0000    0.0000 H   0  0  0  0  0  0  0  0  0  0  0  0
    0.0000    0.0000    0.0000 H   0  0  0  0  0  0  0  0  0  0  0  0
    0.0000    0.0000    0.0000 H   0  0  0  0  0  0  0  0  0  0  0  0
    0.0000    0.0000    0.0000 H   0  0  0  0  0  0  0  0  0  0  0  0
    0.0000    0.0000    0.0000 H   0  0  0  0  0  0  0  0  0  0  0  0
    0.0000    0.0000    0.0000 H   0  0  0  0  0  0  0  0  0  0  0  0
    0.0000    0.0000    0.0000 H   0  0  0  0  0  0  0  0  0  0  0  0
    0.0000    0.0000    0.0000 H   0  0  0  0  0  0  0  0  0  0  0  0
  1  2  2  0
  1  6  1  0
  2  3  1  0
  3  4  2  0
  4  5  1  0
  5  6  2  0
  3  7  1  0
  8  6  1  1
  8  9  1  0
  8 10  1  0
  9 11  1  0
 11 12  2  0
 11 16  1  0
 12 13  1  0
 13 14  2  0
 14 15  1  0
 15 16  2  0
 15 17  1  0
 10 18  1  0
 10 19  1  0
 10 20  1  0
 13 21  1  0
 21 22  2  0
 21 26  1  0
 22 23  1  0
 23 24  2  0
 24 25  1  0
 25 26  2  0
 24 27  1  0
 28 27  1  6
 28 29  1  0
 29 30  1  0
 29 31  2  0
 28 32  1  0
  5 33  1  0
 33 34  1  0
 33 37  1  0
 34 35  2  0
 35 36  1  0
 36 37  2  0
 36 38  1  0
  1 39  1  0
  2 40  1  0
  4 41  1  0
  8 42  1  0
 12 43  1  0
 17 44  1  0
 17 45  1  0
 22 46  1  0
 23 47  1  0
 25 48  1  0
 26 49  1  0
 27 50  1  0
 27 51  1  0
 28 52  1  0
 30 53  1  0
 32 54  1  0
 32 55  1  0
 34 56  1  0
 35 57  1  0
 38 58  1  0
 38 59  1  0
 38 60  1  0
M  END
>  <ALOGPS_LOGP>  (1) 
2.24

>  <ALOGPS_LOGS>  (1) 
-5.20

>  <ALOGPS_SOLUBILITY>  (1) 
3.48e-03 g/l

>  <DATABASE_ID>  (1) 
DB12095

>  <DATABASE_NAME>  (1) 
drugbank

>  <DRUGBANK_ID>  (1) 
DB12095

>  <DRUG_GROUPS>  (1) 
approved

>  <EXACT_MASS>  (1) 
546.1394008

>  <FORMULA>  (1) 
C25H22ClF3N6O3

>  <GENERIC_NAME>  (1) 
Telotristat

>  <INCHI_IDENTIFIER>  (1) 
InChI=1S/C25H22ClF3N6O3/c1-13-8-9-35(34-13)20-11-16(26)6-7-17(20)22(25(27,28)29)38-21-12-19(32-24(31)33-21)15-4-2-14(3-5-15)10-18(30)23(36)37/h2-9,11-12,18,22H,10,30H2,1H3,(H,36,37)(H2,31,32,33)/t18-,22+/m0/s1

>  <INCHI_KEY>  (1) 
NCLGDOBQAWBXRA-PGRDOPGGSA-N

>  <JCHEM_ACCEPTOR_COUNT>  (1) 
8

>  <JCHEM_ATOM_COUNT>  (1) 
60

>  <JCHEM_AVERAGE_POLARIZABILITY>  (1) 
52.461542990591056

>  <JCHEM_BIOAVAILABILITY>  (1) 
1

>  <JCHEM_DONOR_COUNT>  (1) 
3

>  <JCHEM_FORMAL_CHARGE>  (1) 
0

>  <JCHEM_GHOSE_FILTER>  (1) 
0

>  <JCHEM_IUPAC>  (1) 
(2S)-2-amino-3-(4-{2-amino-6-[(1R)-1-[4-chloro-2-(3-methyl-1H-pyrazol-1-yl)phenyl]-2,2,2-trifluoroethoxy]pyrimidin-4-yl}phenyl)propanoic acid

>  <JCHEM_LOGP>  (1) 
2.769165335744291

>  <JCHEM_MDDR_LIKE_RULE>  (1) 
1

>  <JCHEM_NUMBER_OF_RINGS>  (1) 
4

>  <JCHEM_PHYSIOLOGICAL_CHARGE>  (1) 
0

>  <JCHEM_PKA>  (1) 
16.05528637468429

>  <JCHEM_PKA_STRONGEST_ACIDIC>  (1) 
1.67925730138434

>  <JCHEM_PKA_STRONGEST_BASIC>  (1) 
9.421606025587892

>  <JCHEM_POLAR_SURFACE_AREA>  (1) 
142.17000000000002

>  <JCHEM_REFRACTIVITY>  (1) 
135.4588

>  <JCHEM_ROTATABLE_BOND_COUNT>  (1) 
9

>  <JCHEM_RULE_OF_FIVE>  (1) 
0

>  <JCHEM_TRADITIONAL_IUPAC>  (1) 
(2S)-2-amino-3-(4-{2-amino-6-[(1R)-1-[4-chloro-2-(3-methylpyrazol-1-yl)phenyl]-2,2,2-trifluoroethoxy]pyrimidin-4-yl}phenyl)propanoic acid

>  <JCHEM_VEBER_RULE>  (1) 
0

>  <MOLECULAR_WEIGHT>  (1) 
546.94

>  <PRODUCTS>  (1) 
Xermelo

>  <SALTS>  (1) 
Telotristat ethyl; Telotristat etiprate

>  <SMILES>  (1) 
CC1=NN(C=C1)C1=CC(Cl)=CC=C1[C@@H](OC1=NC(N)=NC(=C1)C1=CC=C(C[C@H](N)C(O)=O)C=C1)C(F)(F)F

$$$$
