
     RDKit          2D

 79 83  0  0  0  0  0  0  0  0999 V2000
   -7.8592   -2.8875    0.0000 C   0  0  0  0  0  0  0  0  0  0  0  0
   -7.8592   -3.7125    0.0000 N   0  0  0  0  0  0  0  0  0  0  0  0
   -7.1447   -4.1250    0.0000 C   0  0  0  0  0  0  0  0  0  0  0  0
   -7.1447   -4.9500    0.0000 C   0  0  0  0  0  0  0  0  0  0  0  0
   -7.8592   -5.3625    0.0000 N   0  0  0  0  0  0  0  0  0  0  0  0
   -8.5737   -4.9500    0.0000 C   0  0  0  0  0  0  0  0  0  0  0  0
   -8.5737   -4.1250    0.0000 C   0  0  0  0  0  0  0  0  0  0  0  0
   -7.8592   -6.1875    0.0000 C   0  0  0  0  0  0  0  0  0  0  0  0
   -7.1447   -6.6000    0.0000 C   0  0  0  0  0  0  0  0  0  0  0  0
   -7.1447   -7.4250    0.0000 C   0  0  0  0  0  0  0  0  0  0  0  0
   -7.8592   -7.8375    0.0000 N   0  0  0  0  0  0  0  0  0  0  0  0
   -8.5737   -7.4250    0.0000 C   0  0  0  0  0  0  0  0  0  0  0  0
   -8.5737   -6.6000    0.0000 C   0  0  0  0  0  0  0  0  0  0  0  0
   -7.8592   -8.6625    0.0000 C   0  0  0  0  0  0  0  0  0  0  0  0
   -7.1447   -9.0750    0.0000 C   0  0  0  0  0  0  0  0  0  0  0  0
   -7.1447   -9.9000    0.0000 C   0  0  0  0  0  0  0  0  0  0  0  0
   -7.8592  -10.3125    0.0000 C   0  0  0  0  0  0  0  0  0  0  0  0
   -8.5737   -9.9000    0.0000 C   0  0  0  0  0  0  0  0  0  0  0  0
   -8.5737   -9.0750    0.0000 C   0  0  0  0  0  0  0  0  0  0  0  0
   -9.2881  -10.3125    0.0000 O   0  0  0  0  0  0  0  0  0  0  0  0
  -10.0026   -9.9000    0.0000 C   0  0  0  0  0  0  0  0  0  0  0  0
   -7.8592  -11.1375    0.0000 N   0  0  0  0  0  0  0  0  0  0  0  0
   -8.5737  -11.5500    0.0000 C   0  0  0  0  0  0  0  0  0  0  0  0
   -9.2881  -11.1375    0.0000 N   0  0  0  0  0  0  0  0  0  0  0  0
  -10.0026  -11.5500    0.0000 C   0  0  0  0  0  0  0  0  0  0  0  0
  -10.0026  -12.3750    0.0000 C   0  0  0  0  0  0  0  0  0  0  0  0
   -9.2881  -12.7875    0.0000 C   0  0  0  0  0  0  0  0  0  0  0  0
   -8.5737  -12.3750    0.0000 N   0  0  0  0  0  0  0  0  0  0  0  0
   -9.2881  -13.6125    0.0000 N   0  0  0  0  0  0  0  0  0  0  0  0
   -8.5737  -14.0250    0.0000 C   0  0  0  0  0  0  0  0  0  0  0  0
   -7.8592  -13.6125    0.0000 C   0  0  0  0  0  0  0  0  0  0  0  0
   -7.1447  -14.0250    0.0000 C   0  0  0  0  0  0  0  0  0  0  0  0
   -7.1447  -14.8500    0.0000 C   0  0  0  0  0  0  0  0  0  0  0  0
   -7.8592  -15.2625    0.0000 C   0  0  0  0  0  0  0  0  0  0  0  0
   -8.5737  -14.8500    0.0000 C   0  0  0  0  0  0  0  0  0  0  0  0
   -9.2881  -15.2625    0.0000 P   0  0  0  0  0  0  0  0  0  0  0  0
  -10.0026  -15.6750    0.0000 O   0  0  0  0  0  0  0  0  0  0  0  0
   -9.7006  -14.5480    0.0000 C   0  0  0  0  0  0  0  0  0  0  0  0
   -8.8756  -15.9770    0.0000 C   0  0  0  0  0  0  0  0  0  0  0  0
  -10.7171  -12.7875    0.0000 Cl  0  0  0  0  0  0  0  0  0  0  0  0
    0.0000    0.0000    0.0000 H   0  0  0  0  0  0  0  0  0  0  0  0
    0.0000    0.0000    0.0000 H   0  0  0  0  0  0  0  0  0  0  0  0
    0.0000    0.0000    0.0000 H   0  0  0  0  0  0  0  0  0  0  0  0
    0.0000    0.0000    0.0000 H   0  0  0  0  0  0  0  0  0  0  0  0
    0.0000    0.0000    0.0000 H   0  0  0  0  0  0  0  0  0  0  0  0
    0.0000    0.0000    0.0000 H   0  0  0  0  0  0  0  0  0  0  0  0
    0.0000    0.0000    0.0000 H   0  0  0  0  0  0  0  0  0  0  0  0
    0.0000    0.0000    0.0000 H   0  0  0  0  0  0  0  0  0  0  0  0
    0.0000    0.0000    0.0000 H   0  0  0  0  0  0  0  0  0  0  0  0
    0.0000    0.0000    0.0000 H   0  0  0  0  0  0  0  0  0  0  0  0
    0.0000    0.0000    0.0000 H   0  0  0  0  0  0  0  0  0  0  0  0
    0.0000    0.0000    0.0000 H   0  0  0  0  0  0  0  0  0  0  0  0
    0.0000    0.0000    0.0000 H   0  0  0  0  0  0  0  0  0  0  0  0
    0.0000    0.0000    0.0000 H   0  0  0  0  0  0  0  0  0  0  0  0
    0.0000    0.0000    0.0000 H   0  0  0  0  0  0  0  0  0  0  0  0
    0.0000    0.0000    0.0000 H   0  0  0  0  0  0  0  0  0  0  0  0
    0.0000    0.0000    0.0000 H   0  0  0  0  0  0  0  0  0  0  0  0
    0.0000    0.0000    0.0000 H   0  0  0  0  0  0  0  0  0  0  0  0
    0.0000    0.0000    0.0000 H   0  0  0  0  0  0  0  0  0  0  0  0
    0.0000    0.0000    0.0000 H   0  0  0  0  0  0  0  0  0  0  0  0
    0.0000    0.0000    0.0000 H   0  0  0  0  0  0  0  0  0  0  0  0
    0.0000    0.0000    0.0000 H   0  0  0  0  0  0  0  0  0  0  0  0
    0.0000    0.0000    0.0000 H   0  0  0  0  0  0  0  0  0  0  0  0
    0.0000    0.0000    0.0000 H   0  0  0  0  0  0  0  0  0  0  0  0
    0.0000    0.0000    0.0000 H   0  0  0  0  0  0  0  0  0  0  0  0
    0.0000    0.0000    0.0000 H   0  0  0  0  0  0  0  0  0  0  0  0
    0.0000    0.0000    0.0000 H   0  0  0  0  0  0  0  0  0  0  0  0
    0.0000    0.0000    0.0000 H   0  0  0  0  0  0  0  0  0  0  0  0
    0.0000    0.0000    0.0000 H   0  0  0  0  0  0  0  0  0  0  0  0
    0.0000    0.0000    0.0000 H   0  0  0  0  0  0  0  0  0  0  0  0
    0.0000    0.0000    0.0000 H   0  0  0  0  0  0  0  0  0  0  0  0
    0.0000    0.0000    0.0000 H   0  0  0  0  0  0  0  0  0  0  0  0
    0.0000    0.0000    0.0000 H   0  0  0  0  0  0  0  0  0  0  0  0
    0.0000    0.0000    0.0000 H   0  0  0  0  0  0  0  0  0  0  0  0
    0.0000    0.0000    0.0000 H   0  0  0  0  0  0  0  0  0  0  0  0
    0.0000    0.0000    0.0000 H   0  0  0  0  0  0  0  0  0  0  0  0
    0.0000    0.0000    0.0000 H   0  0  0  0  0  0  0  0  0  0  0  0
    0.0000    0.0000    0.0000 H   0  0  0  0  0  0  0  0  0  0  0  0
    0.0000    0.0000    0.0000 H   0  0  0  0  0  0  0  0  0  0  0  0
  1  2  1  0
  2  3  1  0
  3  4  1  0
  4  5  1  0
  5  6  1  0
  6  7  1  0
  2  7  1  0
  5  8  1  0
  8  9  1  0
  9 10  1  0
 10 11  1  0
 11 12  1  0
 12 13  1  0
  8 13  1  0
 11 14  1  0
 14 15  2  0
 15 16  1  0
 16 17  2  0
 17 18  1  0
 18 19  2  0
 14 19  1  0
 18 20  1  0
 20 21  1  0
 17 22  1  0
 22 23  1  0
 23 24  2  0
 24 25  1  0
 25 26  2  0
 26 27  1  0
 27 28  2  0
 23 28  1  0
 27 29  1  0
 29 30  1  0
 30 31  2  0
 31 32  1  0
 32 33  2  0
 33 34  1  0
 34 35  2  0
 30 35  1  0
 35 36  1  0
 36 37  2  0
 36 38  1  0
 36 39  1  0
 26 40  1  0
  1 41  1  0
  1 42  1  0
  1 43  1  0
  3 44  1  0
  3 45  1  0
  4 46  1  0
  4 47  1  0
  6 48  1  0
  6 49  1  0
  7 50  1  0
  7 51  1  0
  8 52  1  0
  9 53  1  0
  9 54  1  0
 10 55  1  0
 10 56  1  0
 12 57  1  0
 12 58  1  0
 13 59  1  0
 13 60  1  0
 15 61  1  0
 16 62  1  0
 19 63  1  0
 21 64  1  0
 21 65  1  0
 21 66  1  0
 22 67  1  0
 25 68  1  0
 29 69  1  0
 31 70  1  0
 32 71  1  0
 33 72  1  0
 34 73  1  0
 38 74  1  0
 38 75  1  0
 38 76  1  0
 39 77  1  0
 39 78  1  0
 39 79  1  0
M  END
>  <ALOGPS_LOGP>  (1) 
5.11

>  <ALOGPS_LOGS>  (1) 
-4.42

>  <ALOGPS_SOLUBILITY>  (1) 
2.20e-02 g/l

>  <DATABASE_ID>  (1) 
DB12267

>  <DATABASE_NAME>  (1) 
drugbank

>  <DRUGBANK_ID>  (1) 
DB12267

>  <DRUG_GROUPS>  (1) 
approved

>  <EXACT_MASS>  (1) 
583.2591382

>  <FORMULA>  (1) 
C29H39ClN7O2P

>  <GENERIC_NAME>  (1) 
Brigatinib

>  <INCHI_IDENTIFIER>  (1) 
InChI=1S/C29H39ClN7O2P/c1-35-15-17-37(18-16-35)21-11-13-36(14-12-21)22-9-10-24(26(19-22)39-2)33-29-31-20-23(30)28(34-29)32-25-7-5-6-8-27(25)40(3,4)38/h5-10,19-21H,11-18H2,1-4H3,(H2,31,32,33,34)

>  <INCHI_KEY>  (1) 
AILRADAXUVEEIR-UHFFFAOYSA-N

>  <JCHEM_ACCEPTOR_COUNT>  (1) 
9

>  <JCHEM_ATOM_COUNT>  (1) 
79

>  <JCHEM_AVERAGE_POLARIZABILITY>  (1) 
64.09632241862066

>  <JCHEM_BIOAVAILABILITY>  (1) 
1

>  <JCHEM_DONOR_COUNT>  (1) 
2

>  <JCHEM_FORMAL_CHARGE>  (1) 
0

>  <JCHEM_GHOSE_FILTER>  (1) 
0

>  <JCHEM_IUPAC>  (1) 
5-chloro-N4-[2-(dimethylphosphoryl)phenyl]-N2-{2-methoxy-4-[4-(4-methylpiperazin-1-yl)piperidin-1-yl]phenyl}pyrimidine-2,4-diamine

>  <JCHEM_LOGP>  (1) 
3.6589999999999967

>  <JCHEM_MDDR_LIKE_RULE>  (1) 
1

>  <JCHEM_NUMBER_OF_RINGS>  (1) 
5

>  <JCHEM_PHYSIOLOGICAL_CHARGE>  (1) 
1

>  <JCHEM_PKA>  (1) 
14.704093914680158

>  <JCHEM_PKA_STRONGEST_ACIDIC>  (1) 
12.881749684402603

>  <JCHEM_PKA_STRONGEST_BASIC>  (1) 
8.536606033648397

>  <JCHEM_POLAR_SURFACE_AREA>  (1) 
85.86000000000001

>  <JCHEM_REFRACTIVITY>  (1) 
164.77139999999997

>  <JCHEM_ROTATABLE_BOND_COUNT>  (1) 
8

>  <JCHEM_RULE_OF_FIVE>  (1) 
0

>  <JCHEM_TRADITIONAL_IUPAC>  (1) 
5-chloro-N4-[2-(dimethylphosphoryl)phenyl]-N2-{2-methoxy-4-[4-(4-methylpiperazin-1-yl)piperidin-1-yl]phenyl}pyrimidine-2,4-diamine

>  <JCHEM_VEBER_RULE>  (1) 
0

>  <MOLECULAR_WEIGHT>  (1) 
584.1

>  <PRODUCTS>  (1) 
Alunbrig

>  <SMILES>  (1) 
COC1=CC(=CC=C1NC1=NC=C(Cl)C(NC2=CC=CC=C2P(C)(C)=O)=N1)N1CCC(CC1)N1CCN(C)CC1

$$$$
