
     RDKit          2D

 63 67  0  0  0  0  0  0  0  0999 V2000
    4.6912   -1.7427    0.0000 C   0  0  0  0  0  0  0  0  0  0  0  0
    5.1258   -1.0415    0.0000 O   0  0  0  0  0  0  0  0  0  0  0  0
    4.7358   -0.3145    0.0000 C   0  0  0  0  0  0  0  0  0  0  0  0
    5.1704    0.3867    0.0000 C   0  0  0  0  0  0  0  0  0  0  0  0
    4.7804    1.1137    0.0000 C   0  0  0  0  0  0  0  0  0  0  0  0
    3.9558    1.1395    0.0000 C   0  0  0  0  0  0  0  0  0  0  0  0
    3.5212    0.4383    0.0000 C   0  0  0  0  0  0  0  0  0  0  0  0
    3.9112   -0.2887    0.0000 C   0  0  0  0  0  0  0  0  0  0  0  0
    3.4766   -0.9900    0.0000 N   0  0  0  0  0  0  0  0  0  0  0  0
    2.6520   -0.9642    0.0000 C   0  0  0  0  0  0  0  0  0  0  0  0
    2.2620   -0.2372    0.0000 N   0  0  0  0  0  0  0  0  0  0  0  0
    2.6966    0.4640    0.0000 C   0  0  0  0  0  0  0  0  0  0  0  0
    2.1640    1.0941    0.0000 N   0  0  0  0  0  0  0  0  0  0  0  0
    1.4002    0.7822    0.0000 C   0  0  0  0  0  0  0  0  0  0  0  0
    1.4608   -0.0406    0.0000 C   0  0  0  0  0  0  0  0  0  0  0  0
    2.2174   -1.6655    0.0000 N   0  0  0  0  0  0  0  0  0  0  0  0
    1.3928   -1.6397    0.0000 C   0  0  0  0  0  0  0  0  0  0  0  0
    1.0028   -0.9127    0.0000 O   0  0  0  0  0  0  0  0  0  0  0  0
    0.9582   -2.3409    0.0000 C   0  0  0  0  0  0  0  0  0  0  0  0
    1.3481   -3.0679    0.0000 C   0  0  0  0  0  0  0  0  0  0  0  0
    0.9135   -3.7692    0.0000 N   0  0  0  0  0  0  0  0  0  0  0  0
    0.0889   -3.7434    0.0000 C   0  0  0  0  0  0  0  0  0  0  0  0
   -0.3011   -3.0164    0.0000 N   0  0  0  0  0  0  0  0  0  0  0  0
    0.1336   -2.3152    0.0000 C   0  0  0  0  0  0  0  0  0  0  0  0
   -0.3457   -4.4447    0.0000 N   0  0  0  0  0  0  0  0  0  0  0  0
    5.9950    0.3610    0.0000 O   0  0  0  0  0  0  0  0  0  0  0  0
    6.4296    1.0622    0.0000 C   0  0  0  0  0  0  0  0  0  0  0  0
    7.2542    1.0365    0.0000 C   0  0  0  0  0  0  0  0  0  0  0  0
    7.6888    1.7377    0.0000 C   0  0  0  0  0  0  0  0  0  0  0  0
    8.5134    1.7119    0.0000 N   0  0  0  0  0  0  0  0  0  0  0  0
    8.9480    2.4132    0.0000 C   0  0  0  0  0  0  0  0  0  0  0  0
    9.7726    2.3874    0.0000 C   0  0  0  0  0  0  0  0  0  0  0  0
   10.1626    1.6604    0.0000 O   0  0  0  0  0  0  0  0  0  0  0  0
    9.7280    0.9592    0.0000 C   0  0  0  0  0  0  0  0  0  0  0  0
    8.9034    0.9849    0.0000 C   0  0  0  0  0  0  0  0  0  0  0  0
    0.0000    0.0000    0.0000 H   0  0  0  0  0  0  0  0  0  0  0  0
    0.0000    0.0000    0.0000 H   0  0  0  0  0  0  0  0  0  0  0  0
    0.0000    0.0000    0.0000 H   0  0  0  0  0  0  0  0  0  0  0  0
    0.0000    0.0000    0.0000 H   0  0  0  0  0  0  0  0  0  0  0  0
    0.0000    0.0000    0.0000 H   0  0  0  0  0  0  0  0  0  0  0  0
    0.0000    0.0000    0.0000 H   0  0  0  0  0  0  0  0  0  0  0  0
    0.0000    0.0000    0.0000 H   0  0  0  0  0  0  0  0  0  0  0  0
    0.0000    0.0000    0.0000 H   0  0  0  0  0  0  0  0  0  0  0  0
    0.0000    0.0000    0.0000 H   0  0  0  0  0  0  0  0  0  0  0  0
    0.0000    0.0000    0.0000 H   0  0  0  0  0  0  0  0  0  0  0  0
    0.0000    0.0000    0.0000 H   0  0  0  0  0  0  0  0  0  0  0  0
    0.0000    0.0000    0.0000 H   0  0  0  0  0  0  0  0  0  0  0  0
    0.0000    0.0000    0.0000 H   0  0  0  0  0  0  0  0  0  0  0  0
    0.0000    0.0000    0.0000 H   0  0  0  0  0  0  0  0  0  0  0  0
    0.0000    0.0000    0.0000 H   0  0  0  0  0  0  0  0  0  0  0  0
    0.0000    0.0000    0.0000 H   0  0  0  0  0  0  0  0  0  0  0  0
    0.0000    0.0000    0.0000 H   0  0  0  0  0  0  0  0  0  0  0  0
    0.0000    0.0000    0.0000 H   0  0  0  0  0  0  0  0  0  0  0  0
    0.0000    0.0000    0.0000 H   0  0  0  0  0  0  0  0  0  0  0  0
    0.0000    0.0000    0.0000 H   0  0  0  0  0  0  0  0  0  0  0  0
    0.0000    0.0000    0.0000 H   0  0  0  0  0  0  0  0  0  0  0  0
    0.0000    0.0000    0.0000 H   0  0  0  0  0  0  0  0  0  0  0  0
    0.0000    0.0000    0.0000 H   0  0  0  0  0  0  0  0  0  0  0  0
    0.0000    0.0000    0.0000 H   0  0  0  0  0  0  0  0  0  0  0  0
    0.0000    0.0000    0.0000 H   0  0  0  0  0  0  0  0  0  0  0  0
    0.0000    0.0000    0.0000 H   0  0  0  0  0  0  0  0  0  0  0  0
    0.0000    0.0000    0.0000 H   0  0  0  0  0  0  0  0  0  0  0  0
    0.0000    0.0000    0.0000 H   0  0  0  0  0  0  0  0  0  0  0  0
  1  2  1  0
  2  3  1  0
  3  4  2  0
  4  5  1  0
  5  6  2  0
  6  7  1  0
  7  8  2  0
  3  8  1  0
  8  9  1  0
  9 10  2  0
 10 11  1  0
 11 12  1  0
  7 12  1  0
 12 13  2  0
 13 14  1  0
 14 15  1  0
 11 15  1  0
 10 16  1  0
 16 17  1  0
 17 18  2  0
 17 19  1  0
 19 20  2  0
 20 21  1  0
 21 22  2  0
 22 23  1  0
 23 24  2  0
 19 24  1  0
 22 25  1  0
  4 26  1  0
 26 27  1  0
 27 28  1  0
 28 29  1  0
 29 30  1  0
 30 31  1  0
 31 32  1  0
 32 33  1  0
 33 34  1  0
 34 35  1  0
 30 35  1  0
  1 36  1  0
  1 37  1  0
  1 38  1  0
  5 39  1  0
  6 40  1  0
 14 41  1  0
 14 42  1  0
 15 43  1  0
 15 44  1  0
 16 45  1  0
 20 46  1  0
 24 47  1  0
 25 48  1  0
 25 49  1  0
 27 50  1  0
 27 51  1  0
 28 52  1  0
 28 53  1  0
 29 54  1  0
 29 55  1  0
 31 56  1  0
 31 57  1  0
 32 58  1  0
 32 59  1  0
 34 60  1  0
 34 61  1  0
 35 62  1  0
 35 63  1  0
M  END
>  <ALOGPS_LOGP>  (1) 
1.02

>  <ALOGPS_LOGS>  (1) 
-3.32

>  <ALOGPS_SOLUBILITY>  (1) 
2.31e-01 g/l

>  <DATABASE_ID>  (1) 
DB12483

>  <DATABASE_NAME>  (1) 
drugbank

>  <DRUGBANK_ID>  (1) 
DB12483

>  <DRUG_GROUPS>  (1) 
approved

>  <EXACT_MASS>  (1) 
480.223351414

>  <FORMULA>  (1) 
C23H28N8O4

>  <GENERIC_NAME>  (1) 
Copanlisib

>  <INCHI_IDENTIFIER>  (1) 
InChI=1S/C23H28N8O4/c1-33-19-17(35-10-2-6-30-8-11-34-12-9-30)4-3-16-18(19)28-23(31-7-5-25-20(16)31)29-21(32)15-13-26-22(24)27-14-15/h3-4,13-14H,2,5-12H2,1H3,(H2,24,26,27)(H,28,29,32)

>  <INCHI_KEY>  (1) 
PZBCKZWLPGJMAO-UHFFFAOYSA-N

>  <JCHEM_ACCEPTOR_COUNT>  (1) 
11

>  <JCHEM_ATOM_COUNT>  (1) 
63

>  <JCHEM_AVERAGE_POLARIZABILITY>  (1) 
51.7580740488968

>  <JCHEM_BIOAVAILABILITY>  (1) 
1

>  <JCHEM_DONOR_COUNT>  (1) 
2

>  <JCHEM_FORMAL_CHARGE>  (1) 
0

>  <JCHEM_GHOSE_FILTER>  (1) 
0

>  <JCHEM_IUPAC>  (1) 
2-amino-N-{7-methoxy-8-[3-(morpholin-4-yl)propoxy]-2H,3H-imidazo[1,2-c]quinazolin-5-yl}pyrimidine-5-carboxamide

>  <JCHEM_LOGP>  (1) 
0.3192440660000002

>  <JCHEM_MDDR_LIKE_RULE>  (1) 
1

>  <JCHEM_NUMBER_OF_RINGS>  (1) 
5

>  <JCHEM_PHYSIOLOGICAL_CHARGE>  (1) 
1

>  <JCHEM_PKA>  (1) 
16.288325793977098

>  <JCHEM_PKA_STRONGEST_ACIDIC>  (1) 
10.154567971303427

>  <JCHEM_PKA_STRONGEST_BASIC>  (1) 
6.8826987198738285

>  <JCHEM_POLAR_SURFACE_AREA>  (1) 
139.79

>  <JCHEM_REFRACTIVITY>  (1) 
132.77859999999995

>  <JCHEM_ROTATABLE_BOND_COUNT>  (1) 
7

>  <JCHEM_RULE_OF_FIVE>  (1) 
0

>  <JCHEM_TRADITIONAL_IUPAC>  (1) 
2-amino-N-{7-methoxy-8-[3-(morpholin-4-yl)propoxy]-2H,3H-imidazo[1,2-c]quinazolin-5-yl}pyrimidine-5-carboxamide

>  <JCHEM_VEBER_RULE>  (1) 
0

>  <MOLECULAR_WEIGHT>  (1) 
480.529

>  <PRODUCTS>  (1) 
Aliqopa

>  <SALTS>  (1) 
Copanlisib dihydrochloride

>  <SMILES>  (1) 
COC1=C(OCCCN2CCOCC2)C=CC2=C1N=C(NC(=O)C1=CN=C(N)N=C1)N1CCN=C21

$$$$
