
     RDKit          2D

 61 65  0  0  0  0  0  0  0  0999 V2000
    0.9920    6.1875    0.0000 C   0  0  0  0  0  0  0  0  0  0  0  0
    0.9920    5.3625    0.0000 N   0  0  0  0  0  0  0  0  0  0  0  0
    1.7064    4.9500    0.0000 C   0  0  0  0  0  0  0  0  0  0  0  0
    1.7064    4.1250    0.0000 C   0  0  0  0  0  0  0  0  0  0  0  0
    0.9920    3.7125    0.0000 N   0  0  0  0  0  0  0  0  0  0  0  0
    0.2775    4.1250    0.0000 C   0  0  0  0  0  0  0  0  0  0  0  0
    0.2775    4.9500    0.0000 C   0  0  0  0  0  0  0  0  0  0  0  0
    0.9920    2.8875    0.0000 C   0  0  0  0  0  0  0  0  0  0  0  0
    1.7064    2.4750    0.0000 C   0  0  0  0  0  0  0  0  0  0  0  0
    1.7064    1.6500    0.0000 C   0  0  0  0  0  0  0  0  0  0  0  0
    0.9920    1.2375    0.0000 C   0  0  0  0  0  0  0  0  0  0  0  0
    0.9920    0.4125    0.0000 N   0  0  0  0  0  0  0  0  0  0  0  0
    0.2775    0.0000    0.0000 C   0  0  0  0  0  0  0  0  0  0  0  0
    0.2775   -0.8250    0.0000 N   0  0  0  0  0  0  0  0  0  0  0  0
   -0.4369   -1.2375    0.0000 C   0  0  0  0  0  0  0  0  0  0  0  0
   -0.4369   -2.0625    0.0000 O   0  0  0  0  0  0  0  0  0  0  0  0
    0.2775   -2.4750    0.0000 C   0  0  0  0  0  0  0  0  0  0  0  0
    0.9920   -2.0625    0.0000 C   0  0  0  0  0  0  0  0  0  0  0  0
    1.7064   -2.4750    0.0000 C   0  0  0  0  0  0  0  0  0  0  0  0
    1.7064   -3.3000    0.0000 C   0  0  0  0  0  0  0  0  0  0  0  0
    0.9920   -3.7125    0.0000 C   0  0  0  0  0  0  0  0  0  0  0  0
    0.9920   -4.5375    0.0000 N   0  0  0  0  0  0  0  0  0  0  0  0
    1.7064   -4.9500    0.0000 C   0  0  0  0  0  0  0  0  0  0  0  0
    2.4209   -4.5375    0.0000 O   0  0  0  0  0  0  0  0  0  0  0  0
    1.7064   -5.7750    0.0000 C   0  0  0  0  0  0  0  0  0  0  0  0
    2.4209   -6.1875    0.0000 C   0  0  0  0  0  0  0  0  0  0  0  0
    0.2775   -3.3000    0.0000 C   0  0  0  0  0  0  0  0  0  0  0  0
   -1.1514   -0.8250    0.0000 C   0  0  0  0  0  0  0  0  0  0  0  0
   -1.9360   -1.0799    0.0000 S   0  0  0  0  0  0  0  0  0  0  0  0
   -2.4209   -0.4125    0.0000 C   0  0  0  0  0  0  0  0  0  0  0  0
   -1.9360    0.2549    0.0000 C   0  0  0  0  0  0  0  0  0  0  0  0
   -1.1514    0.0000    0.0000 C   0  0  0  0  0  0  0  0  0  0  0  0
   -0.4369    0.4125    0.0000 N   0  0  0  0  0  0  0  0  0  0  0  0
    0.2775    1.6500    0.0000 C   0  0  0  0  0  0  0  0  0  0  0  0
    0.2775    2.4750    0.0000 C   0  0  0  0  0  0  0  0  0  0  0  0
    0.0000    0.0000    0.0000 H   0  0  0  0  0  0  0  0  0  0  0  0
    0.0000    0.0000    0.0000 H   0  0  0  0  0  0  0  0  0  0  0  0
    0.0000    0.0000    0.0000 H   0  0  0  0  0  0  0  0  0  0  0  0
    0.0000    0.0000    0.0000 H   0  0  0  0  0  0  0  0  0  0  0  0
    0.0000    0.0000    0.0000 H   0  0  0  0  0  0  0  0  0  0  0  0
    0.0000    0.0000    0.0000 H   0  0  0  0  0  0  0  0  0  0  0  0
    0.0000    0.0000    0.0000 H   0  0  0  0  0  0  0  0  0  0  0  0
    0.0000    0.0000    0.0000 H   0  0  0  0  0  0  0  0  0  0  0  0
    0.0000    0.0000    0.0000 H   0  0  0  0  0  0  0  0  0  0  0  0
    0.0000    0.0000    0.0000 H   0  0  0  0  0  0  0  0  0  0  0  0
    0.0000    0.0000    0.0000 H   0  0  0  0  0  0  0  0  0  0  0  0
    0.0000    0.0000    0.0000 H   0  0  0  0  0  0  0  0  0  0  0  0
    0.0000    0.0000    0.0000 H   0  0  0  0  0  0  0  0  0  0  0  0
    0.0000    0.0000    0.0000 H   0  0  0  0  0  0  0  0  0  0  0  0
    0.0000    0.0000    0.0000 H   0  0  0  0  0  0  0  0  0  0  0  0
    0.0000    0.0000    0.0000 H   0  0  0  0  0  0  0  0  0  0  0  0
    0.0000    0.0000    0.0000 H   0  0  0  0  0  0  0  0  0  0  0  0
    0.0000    0.0000    0.0000 H   0  0  0  0  0  0  0  0  0  0  0  0
    0.0000    0.0000    0.0000 H   0  0  0  0  0  0  0  0  0  0  0  0
    0.0000    0.0000    0.0000 H   0  0  0  0  0  0  0  0  0  0  0  0
    0.0000    0.0000    0.0000 H   0  0  0  0  0  0  0  0  0  0  0  0
    0.0000    0.0000    0.0000 H   0  0  0  0  0  0  0  0  0  0  0  0
    0.0000    0.0000    0.0000 H   0  0  0  0  0  0  0  0  0  0  0  0
    0.0000    0.0000    0.0000 H   0  0  0  0  0  0  0  0  0  0  0  0
    0.0000    0.0000    0.0000 H   0  0  0  0  0  0  0  0  0  0  0  0
    0.0000    0.0000    0.0000 H   0  0  0  0  0  0  0  0  0  0  0  0
  1  2  1  0
  2  3  1  0
  3  4  1  0
  4  5  1  0
  5  6  1  0
  6  7  1  0
  2  7  1  0
  5  8  1  0
  8  9  2  0
  9 10  1  0
 10 11  2  0
 11 12  1  0
 12 13  1  0
 13 14  2  0
 14 15  1  0
 15 16  1  0
 16 17  1  0
 17 18  2  0
 18 19  1  0
 19 20  2  0
 20 21  1  0
 21 22  1  0
 22 23  1  0
 23 24  2  0
 23 25  1  0
 25 26  2  3
 21 27  2  0
 17 27  1  0
 15 28  2  0
 28 29  1  0
 29 30  1  0
 30 31  2  0
 31 32  1  0
 28 32  1  0
 32 33  2  0
 13 33  1  0
 11 34  1  0
 34 35  2  0
  8 35  1  0
  1 36  1  0
  1 37  1  0
  1 38  1  0
  3 39  1  0
  3 40  1  0
  4 41  1  0
  4 42  1  0
  6 43  1  0
  6 44  1  0
  7 45  1  0
  7 46  1  0
  9 47  1  0
 10 48  1  0
 12 49  1  0
 18 50  1  0
 19 51  1  0
 20 52  1  0
 22 53  1  0
 25 54  1  0
 26 55  1  0
 26 56  1  0
 27 57  1  0
 30 58  1  0
 31 59  1  0
 34 60  1  0
 35 61  1  0
M  END
>  <ALOGPS_LOGP>  (1) 
5.22

>  <ALOGPS_LOGS>  (1) 
-4.79

>  <ALOGPS_SOLUBILITY>  (1) 
7.92e-03 g/l

>  <DATABASE_ID>  (1) 
DB13164

>  <DATABASE_NAME>  (1) 
drugbank

>  <DRUGBANK_ID>  (1) 
DB13164

>  <DRUG_GROUPS>  (1) 
approved; investigational

>  <EXACT_MASS>  (1) 
486.183795275

>  <FORMULA>  (1) 
C26H26N6O2S

>  <GENERIC_NAME>  (1) 
Olmutinib

>  <INCHI_IDENTIFIER>  (1) 
InChI=1S/C26H26N6O2S/c1-3-23(33)27-19-5-4-6-21(17-19)34-25-24-22(11-16-35-24)29-26(30-25)28-18-7-9-20(10-8-18)32-14-12-31(2)13-15-32/h3-11,16-17H,1,12-15H2,2H3,(H,27,33)(H,28,29,30)

>  <INCHI_KEY>  (1) 
FDMQDKQUTRLUBU-UHFFFAOYSA-N

>  <JCHEM_ACCEPTOR_COUNT>  (1) 
6

>  <JCHEM_ATOM_COUNT>  (1) 
61

>  <JCHEM_AVERAGE_POLARIZABILITY>  (1) 
53.20845497558544

>  <JCHEM_BIOAVAILABILITY>  (1) 
1

>  <JCHEM_DONOR_COUNT>  (1) 
2

>  <JCHEM_FORMAL_CHARGE>  (1) 
0

>  <JCHEM_GHOSE_FILTER>  (1) 
0

>  <JCHEM_IUPAC>  (1) 
N-{3-[(2-{[4-(4-methylpiperazin-1-yl)phenyl]amino}thieno[3,2-d]pyrimidin-4-yl)oxy]phenyl}prop-2-enamide

>  <JCHEM_LOGP>  (1) 
5.474233900333334

>  <JCHEM_MDDR_LIKE_RULE>  (1) 
1

>  <JCHEM_NUMBER_OF_RINGS>  (1) 
5

>  <JCHEM_PHYSIOLOGICAL_CHARGE>  (1) 
1

>  <JCHEM_PKA>  (1) 
14.45282113967486

>  <JCHEM_PKA_STRONGEST_ACIDIC>  (1) 
13.84830371430349

>  <JCHEM_PKA_STRONGEST_BASIC>  (1) 
7.958210137355572

>  <JCHEM_POLAR_SURFACE_AREA>  (1) 
82.61999999999999

>  <JCHEM_REFRACTIVITY>  (1) 
140.66629999999998

>  <JCHEM_ROTATABLE_BOND_COUNT>  (1) 
7

>  <JCHEM_RULE_OF_FIVE>  (1) 
0

>  <JCHEM_TRADITIONAL_IUPAC>  (1) 
N-{3-[(2-{[4-(4-methylpiperazin-1-yl)phenyl]amino}thieno[3,2-d]pyrimidin-4-yl)oxy]phenyl}prop-2-enamide

>  <JCHEM_VEBER_RULE>  (1) 
0

>  <MOLECULAR_WEIGHT>  (1) 
486.59

>  <SMILES>  (1) 
CN1CCN(CC1)C1=CC=C(NC2=NC(OC3=CC=CC(NC(=O)C=C)=C3)=C3SC=CC3=N2)C=C1

$$$$
