
     RDKit          2D

 82 78  0  0  0  0  0  0  0  0999 V2000
   -4.2997    0.4300    0.0000 C   0  0  0  0  0  0  0  0  0  0  0  0
   -4.2997    1.2462    0.0000 O   0  0  0  0  0  0  0  0  0  0  0  0
   -3.6002    0.0072    0.0000 O   0  0  0  0  0  0  0  0  0  0  0  0
   -5.0139    0.0072    0.0000 C   0  0  0  0  0  0  0  0  0  0  0  0
   -5.7135    0.3716    0.0000 C   0  0  0  0  0  0  0  0  0  0  0  0
   -6.4715   -0.0511    0.0000 C   0  0  0  0  0  0  0  0  0  0  0  0
   -7.2877    0.4882    0.0000 C   0  0  0  0  0  0  0  0  0  0  0  0
   -5.0139   -0.8089    0.0000 C   0  0  0  0  0  0  0  0  0  0  0  0
   -4.2414   -1.2462    0.0000 C   0  0  0  0  0  0  0  0  0  0  0  0
   -3.5564   -0.8089    0.0000 C   0  0  0  0  0  0  0  0  0  0  0  0
    1.1077    0.4300    0.0000 C   0  0  0  0  0  0  0  0  0  0  0  0
    1.1077    1.2462    0.0000 O   0  0  0  0  0  0  0  0  0  0  0  0
    1.7636    0.0072    0.0000 O   0  0  0  0  0  0  0  0  0  0  0  0
    0.4081    0.0072    0.0000 C   0  0  0  0  0  0  0  0  0  0  0  0
   -0.3497    0.3716    0.0000 C   0  0  0  0  0  0  0  0  0  0  0  0
   -1.0494   -0.0511    0.0000 C   0  0  0  0  0  0  0  0  0  0  0  0
   -1.8656    0.4882    0.0000 C   0  0  0  0  0  0  0  0  0  0  0  0
    0.4081   -0.8089    0.0000 C   0  0  0  0  0  0  0  0  0  0  0  0
    1.1660   -1.2462    0.0000 C   0  0  0  0  0  0  0  0  0  0  0  0
    1.8803   -0.8089    0.0000 C   0  0  0  0  0  0  0  0  0  0  0  0
    6.5152    0.4300    0.0000 C   0  0  0  0  0  0  0  0  0  0  0  0
    6.5152    1.2462    0.0000 O   0  0  0  0  0  0  0  0  0  0  0  0
    7.1711    0.0072    0.0000 O   0  0  0  0  0  0  0  0  0  0  0  0
    5.8156    0.0072    0.0000 C   0  0  0  0  0  0  0  0  0  0  0  0
    5.0577    0.3716    0.0000 C   0  0  0  0  0  0  0  0  0  0  0  0
    4.3580   -0.0511    0.0000 C   0  0  0  0  0  0  0  0  0  0  0  0
    3.5564    0.4882    0.0000 C   0  0  0  0  0  0  0  0  0  0  0  0
    5.8156   -0.8089    0.0000 C   0  0  0  0  0  0  0  0  0  0  0  0
    6.5881   -1.2462    0.0000 C   0  0  0  0  0  0  0  0  0  0  0  0
    7.2877   -0.8089    0.0000 C   0  0  0  0  0  0  0  0  0  0  0  0
   -0.8453    1.2170    0.0000 Bi  0  0  0  0  0  0  0  0  0  0  0  0
    0.0000    0.0000    0.0000 H   0  0  0  0  0  0  0  0  0  0  0  0
    0.0000    0.0000    0.0000 H   0  0  0  0  0  0  0  0  0  0  0  0
    0.0000    0.0000    0.0000 H   0  0  0  0  0  0  0  0  0  0  0  0
    0.0000    0.0000    0.0000 H   0  0  0  0  0  0  0  0  0  0  0  0
    0.0000    0.0000    0.0000 H   0  0  0  0  0  0  0  0  0  0  0  0
    0.0000    0.0000    0.0000 H   0  0  0  0  0  0  0  0  0  0  0  0
    0.0000    0.0000    0.0000 H   0  0  0  0  0  0  0  0  0  0  0  0
    0.0000    0.0000    0.0000 H   0  0  0  0  0  0  0  0  0  0  0  0
    0.0000    0.0000    0.0000 H   0  0  0  0  0  0  0  0  0  0  0  0
    0.0000    0.0000    0.0000 H   0  0  0  0  0  0  0  0  0  0  0  0
    0.0000    0.0000    0.0000 H   0  0  0  0  0  0  0  0  0  0  0  0
    0.0000    0.0000    0.0000 H   0  0  0  0  0  0  0  0  0  0  0  0
    0.0000    0.0000    0.0000 H   0  0  0  0  0  0  0  0  0  0  0  0
    0.0000    0.0000    0.0000 H   0  0  0  0  0  0  0  0  0  0  0  0
    0.0000    0.0000    0.0000 H   0  0  0  0  0  0  0  0  0  0  0  0
    0.0000    0.0000    0.0000 H   0  0  0  0  0  0  0  0  0  0  0  0
    0.0000    0.0000    0.0000 H   0  0  0  0  0  0  0  0  0  0  0  0
    0.0000    0.0000    0.0000 H   0  0  0  0  0  0  0  0  0  0  0  0
    0.0000    0.0000    0.0000 H   0  0  0  0  0  0  0  0  0  0  0  0
    0.0000    0.0000    0.0000 H   0  0  0  0  0  0  0  0  0  0  0  0
    0.0000    0.0000    0.0000 H   0  0  0  0  0  0  0  0  0  0  0  0
    0.0000    0.0000    0.0000 H   0  0  0  0  0  0  0  0  0  0  0  0
    0.0000    0.0000    0.0000 H   0  0  0  0  0  0  0  0  0  0  0  0
    0.0000    0.0000    0.0000 H   0  0  0  0  0  0  0  0  0  0  0  0
    0.0000    0.0000    0.0000 H   0  0  0  0  0  0  0  0  0  0  0  0
    0.0000    0.0000    0.0000 H   0  0  0  0  0  0  0  0  0  0  0  0
    0.0000    0.0000    0.0000 H   0  0  0  0  0  0  0  0  0  0  0  0
    0.0000    0.0000    0.0000 H   0  0  0  0  0  0  0  0  0  0  0  0
    0.0000    0.0000    0.0000 H   0  0  0  0  0  0  0  0  0  0  0  0
    0.0000    0.0000    0.0000 H   0  0  0  0  0  0  0  0  0  0  0  0
    0.0000    0.0000    0.0000 H   0  0  0  0  0  0  0  0  0  0  0  0
    0.0000    0.0000    0.0000 H   0  0  0  0  0  0  0  0  0  0  0  0
    0.0000    0.0000    0.0000 H   0  0  0  0  0  0  0  0  0  0  0  0
    0.0000    0.0000    0.0000 H   0  0  0  0  0  0  0  0  0  0  0  0
    0.0000    0.0000    0.0000 H   0  0  0  0  0  0  0  0  0  0  0  0
    0.0000    0.0000    0.0000 H   0  0  0  0  0  0  0  0  0  0  0  0
    0.0000    0.0000    0.0000 H   0  0  0  0  0  0  0  0  0  0  0  0
    0.0000    0.0000    0.0000 H   0  0  0  0  0  0  0  0  0  0  0  0
    0.0000    0.0000    0.0000 H   0  0  0  0  0  0  0  0  0  0  0  0
    0.0000    0.0000    0.0000 H   0  0  0  0  0  0  0  0  0  0  0  0
    0.0000    0.0000    0.0000 H   0  0  0  0  0  0  0  0  0  0  0  0
    0.0000    0.0000    0.0000 H   0  0  0  0  0  0  0  0  0  0  0  0
    0.0000    0.0000    0.0000 H   0  0  0  0  0  0  0  0  0  0  0  0
    0.0000    0.0000    0.0000 H   0  0  0  0  0  0  0  0  0  0  0  0
    0.0000    0.0000    0.0000 H   0  0  0  0  0  0  0  0  0  0  0  0
    0.0000    0.0000    0.0000 H   0  0  0  0  0  0  0  0  0  0  0  0
    0.0000    0.0000    0.0000 H   0  0  0  0  0  0  0  0  0  0  0  0
    0.0000    0.0000    0.0000 H   0  0  0  0  0  0  0  0  0  0  0  0
    0.0000    0.0000    0.0000 H   0  0  0  0  0  0  0  0  0  0  0  0
    0.0000    0.0000    0.0000 H   0  0  0  0  0  0  0  0  0  0  0  0
    0.0000    0.0000    0.0000 H   0  0  0  0  0  0  0  0  0  0  0  0
  1  2  2  0
  1  3  1  0
  1  4  1  0
  4  5  1  0
  4  8  1  0
  5  6  1  0
  6  7  1  0
  8  9  1  0
  9 10  1  0
 11 12  2  0
 11 13  1  0
 11 14  1  0
 14 15  1  0
 14 18  1  0
 15 16  1  0
 16 17  1  0
 18 19  1  0
 19 20  1  0
 21 22  2  0
 21 23  1  0
 21 24  1  0
 24 25  1  0
 24 28  1  0
 25 26  1  0
 26 27  1  0
 28 29  1  0
 29 30  1  0
  4 32  1  0
  5 33  1  0
  5 34  1  0
  6 35  1  0
  6 36  1  0
  7 37  1  0
  7 38  1  0
  7 39  1  0
  8 40  1  0
  8 41  1  0
  9 42  1  0
  9 43  1  0
 10 44  1  0
 10 45  1  0
 10 46  1  0
 14 47  1  0
 15 48  1  0
 15 49  1  0
 16 50  1  0
 16 51  1  0
 17 52  1  0
 17 53  1  0
 17 54  1  0
 18 55  1  0
 18 56  1  0
 19 57  1  0
 19 58  1  0
 20 59  1  0
 20 60  1  0
 20 61  1  0
 24 62  1  0
 25 63  1  0
 25 64  1  0
 26 65  1  0
 26 66  1  0
 27 67  1  0
 27 68  1  0
 27 69  1  0
 28 70  1  0
 28 71  1  0
 29 72  1  0
 29 73  1  0
 30 74  1  0
 30 75  1  0
 30 76  1  0
 31 77  1  0
 31 78  1  0
 31 79  1  0
 31 80  1  0
 31 81  1  0
 31 82  1  0
M  CHG  4   3  -1  13  -1  23  -1  31   3
M  END
>  <ALOGPS_LOGP>  (1) 
6.20

>  <ALOGPS_LOGS>  (1) 
-3.95

>  <ALOGPS_SOLUBILITY>  (1) 
7.16e-02 g/l

>  <DATABASE_ID>  (1) 
DB13910

>  <DATABASE_NAME>  (1) 
drugbank

>  <DRUGBANK_ID>  (1) 
DB13910

>  <DRUG_GROUPS>  (1) 
approved

>  <EXACT_MASS>  (1) 
638.30201

>  <FORMULA>  (1) 
C24H45BiO6

>  <GENERIC_NAME>  (1) 
Valproate bismuth

>  <INCHI_IDENTIFIER>  (1) 
InChI=1S/3C8H16O2.Bi/c3*1-3-5-7(6-4-2)8(9)10;/h3*7H,3-6H2,1-2H3,(H,9,10);/q;;;+3/p-3

>  <INCHI_KEY>  (1) 
YZDVVHSLIPLZLO-UHFFFAOYSA-K

>  <JCHEM_ACCEPTOR_COUNT>  (1) 
2

>  <JCHEM_ATOM_COUNT>  (1) 
76

>  <JCHEM_AVERAGE_POLARIZABILITY>  (1) 
16.58535761982549

>  <JCHEM_BIOAVAILABILITY>  (1) 
0

>  <JCHEM_DONOR_COUNT>  (1) 
0

>  <JCHEM_FORMAL_CHARGE>  (1) 
0

>  <JCHEM_GHOSE_FILTER>  (1) 
0

>  <JCHEM_IUPAC>  (1) 
bismuth(3+) tris(2-propylpentanoate)

>  <JCHEM_LOGP>  (1) 
2.7984510709999997

>  <JCHEM_MDDR_LIKE_RULE>  (1) 
0

>  <JCHEM_NUMBER_OF_RINGS>  (1) 
0

>  <JCHEM_PHYSIOLOGICAL_CHARGE>  (1) 
-1

>  <JCHEM_PKA_STRONGEST_ACIDIC>  (1) 
5.144389811177235

>  <JCHEM_POLAR_SURFACE_AREA>  (1) 
40.129999999999995

>  <JCHEM_REFRACTIVITY>  (1) 
51.0862

>  <JCHEM_ROTATABLE_BOND_COUNT>  (1) 
15

>  <JCHEM_RULE_OF_FIVE>  (1) 
0

>  <JCHEM_TRADITIONAL_IUPAC>  (1) 
bismuth(3+) trivalproate

>  <JCHEM_VEBER_RULE>  (1) 
0

>  <MOLECULAR_WEIGHT>  (1) 
638.598

>  <PRODUCTS>  (1) 
Neo Laryngobis Enf; Neo-laryngobis

>  <SMILES>  (1) 
[Bi+3].CCCC(CCC)C([O-])=O.CCCC(CCC)C([O-])=O.CCCC(CCC)C([O-])=O

>  <SYNONYMS>  (1) 
Bismuth dipropylacetate

$$$$
