
     RDKit          2D

 54 57  0  0  1  0  0  0  0  0999 V2000
    7.9362   -1.3437    0.0000 C   0  0  0  0  0  0  0  0  0  0  0  0
    3.9503    0.0961    0.0000 C   0  0  0  0  0  0  0  0  0  0  0  0
    6.4662    0.4982    0.0000 C   0  0  0  0  0  0  0  0  0  0  0  0
    3.9215   -2.0864    0.0000 C   0  0  0  0  0  0  0  0  0  0  0  0
    4.7336   -1.9412    0.0000 C   0  0  0  0  0  0  0  0  0  0  0  0
    2.3261   -0.1943    0.0000 C   0  0  0  0  0  0  0  0  0  0  0  0
    3.1382   -0.0491    0.0000 C   0  0  0  0  0  0  0  0  0  0  0  0
    6.4774   -1.5264    0.0000 C   0  0  0  0  0  0  0  0  0  0  0  0
    2.5776   -1.6009    0.0000 C   0  0  0  0  0  0  0  0  0  0  0  0
    5.5745    0.3866    0.0000 C   0  0  0  0  0  0  0  0  0  0  0  0
    8.0233    0.6502    0.0000 C   0  0  0  0  0  0  0  0  0  0  0  0
    7.1602   -1.0634    0.0000 C   0  0  0  0  0  0  0  0  0  0  0  0
    3.3897   -1.4557    0.0000 C   0  0  0  0  0  0  0  0  0  0  0  0
    2.0458   -0.9702    0.0000 C   0  0  0  0  0  0  0  0  0  0  0  0
    5.0139   -1.1653    0.0000 C   0  0  0  0  0  0  0  0  0  0  0  0
    5.8261   -1.0201    0.0000 C   0  0  0  0  0  0  0  0  0  0  0  0
    4.7624    0.2414    0.0000 C   0  0  0  0  0  0  0  0  0  0  0  0
    7.7430   -0.1257    0.0000 C   0  0  0  0  0  0  0  0  0  0  0  0
    3.6700   -0.6798    0.0000 C   0  0  0  0  0  0  0  0  0  0  0  0
    6.1064   -0.2441    0.0000 C   0  0  0  0  0  0  0  0  0  0  0  0
    4.4821   -0.5346    0.0000 C   0  0  0  0  0  0  0  0  0  0  0  0
    6.9309   -0.2709    0.0000 C   0  0  0  0  0  0  0  0  0  0  0  0
    7.4915    1.2809    0.0000 Cl  0  0  0  0  0  0  0  0  0  0  0  0
    4.4226    0.2883    0.0000 F   0  0  0  0  0  0  0  0  0  0  0  0
    1.2336   -1.1154    0.0000 O   0  0  0  0  0  0  0  0  0  0  0  0
    4.2306    0.8721    0.0000 O   0  0  0  0  0  0  0  0  0  0  0  0
    8.2749   -0.7564    0.0000 O   0  0  0  0  0  0  0  0  0  0  0  0
    6.8714    0.5519    0.0000 O   0  0  0  0  0  0  0  0  0  0  0  0
    0.0000    0.0000    0.0000 H   0  0  0  0  0  0  0  0  0  0  0  0
    0.0000    0.0000    0.0000 H   0  0  0  0  0  0  0  0  0  0  0  0
    0.0000    0.0000    0.0000 H   0  0  0  0  0  0  0  0  0  0  0  0
    0.0000    0.0000    0.0000 H   0  0  0  0  0  0  0  0  0  0  0  0
    0.0000    0.0000    0.0000 H   0  0  0  0  0  0  0  0  0  0  0  0
    0.0000    0.0000    0.0000 H   0  0  0  0  0  0  0  0  0  0  0  0
    0.0000    0.0000    0.0000 H   0  0  0  0  0  0  0  0  0  0  0  0
    0.0000    0.0000    0.0000 H   0  0  0  0  0  0  0  0  0  0  0  0
    0.0000    0.0000    0.0000 H   0  0  0  0  0  0  0  0  0  0  0  0
    0.0000    0.0000    0.0000 H   0  0  0  0  0  0  0  0  0  0  0  0
    0.0000    0.0000    0.0000 H   0  0  0  0  0  0  0  0  0  0  0  0
    0.0000    0.0000    0.0000 H   0  0  0  0  0  0  0  0  0  0  0  0
    0.0000    0.0000    0.0000 H   0  0  0  0  0  0  0  0  0  0  0  0
    0.0000    0.0000    0.0000 H   0  0  0  0  0  0  0  0  0  0  0  0
    0.0000    0.0000    0.0000 H   0  0  0  0  0  0  0  0  0  0  0  0
    0.0000    0.0000    0.0000 H   0  0  0  0  0  0  0  0  0  0  0  0
    0.0000    0.0000    0.0000 H   0  0  0  0  0  0  0  0  0  0  0  0
    0.0000    0.0000    0.0000 H   0  0  0  0  0  0  0  0  0  0  0  0
    0.0000    0.0000    0.0000 H   0  0  0  0  0  0  0  0  0  0  0  0
    0.0000    0.0000    0.0000 H   0  0  0  0  0  0  0  0  0  0  0  0
    0.0000    0.0000    0.0000 H   0  0  0  0  0  0  0  0  0  0  0  0
    0.0000    0.0000    0.0000 H   0  0  0  0  0  0  0  0  0  0  0  0
    0.0000    0.0000    0.0000 H   0  0  0  0  0  0  0  0  0  0  0  0
    0.0000    0.0000    0.0000 H   0  0  0  0  0  0  0  0  0  0  0  0
    0.0000    0.0000    0.0000 H   0  0  0  0  0  0  0  0  0  0  0  0
    0.0000    0.0000    0.0000 H   0  0  0  0  0  0  0  0  0  0  0  0
  5  4  1  0
  7  6  2  0
 12  1  1  6
 12  8  1  0
 13  4  1  0
 13  9  2  0
 14  6  1  0
 14  9  1  0
 15  5  1  0
 16  8  1  0
 16 15  1  0
 17 10  1  0
 18 11  1  0
 19  2  1  1
 19  7  1  0
 19 13  1  0
 20  3  1  1
 20 10  1  0
 20 16  1  0
 21 15  1  0
 21 17  1  0
 21 19  1  0
 22 12  1  0
 22 18  1  1
 22 20  1  0
 23 11  1  0
 21 24  1  6
 25 14  2  0
 26 17  2  0
 27 18  2  0
 22 28  1  0
  1 29  1  0
  1 30  1  0
  1 31  1  0
  2 32  1  0
  2 33  1  0
  2 34  1  0
  3 35  1  0
  3 36  1  0
  3 37  1  0
  4 38  1  0
  4 39  1  0
  5 40  1  0
  5 41  1  0
  6 42  1  0
  7 43  1  0
  8 44  1  0
  8 45  1  0
  9 46  1  0
 10 47  1  0
 10 48  1  0
 11 49  1  0
 11 50  1  0
 12 51  1  0
 15 52  1  1
 16 53  1  6
 28 54  1  0
M  END
>  <ALOGPS_LOGP>  (1) 
2.88

>  <ALOGPS_LOGS>  (1) 
-4.77

>  <ALOGPS_SOLUBILITY>  (1) 
6.91e-03 g/l

>  <DATABASE_ID>  (1) 
DB13158

>  <DATABASE_NAME>  (1) 
drugbank

>  <DRUGBANK_ID>  (1) 
DB13158

>  <DRUG_GROUPS>  (1) 
approved

>  <EXACT_MASS>  (1) 
408.1503652

>  <FORMULA>  (1) 
C22H26ClFO4

>  <GENERIC_NAME>  (1) 
Clobetasone

>  <INCHI_IDENTIFIER>  (1) 
InChI=1S/C22H26ClFO4/c1-12-8-16-15-5-4-13-9-14(25)6-7-19(13,2)21(15,24)17(26)10-20(16,3)22(12,28)18(27)11-23/h6-7,9,12,15-16,28H,4-5,8,10-11H2,1-3H3/t12-,15-,16-,19-,20-,21-,22-/m0/s1

>  <INCHI_KEY>  (1) 
XXIFVOHLGBURIG-OZCCCYNHSA-N

>  <INTERNATIONAL_BRANDS>  (1) 
Eumosone; Eumovate

>  <JCHEM_ACCEPTOR_COUNT>  (1) 
4

>  <JCHEM_ATOM_COUNT>  (1) 
54

>  <JCHEM_AVERAGE_POLARIZABILITY>  (1) 
41.36182922713204

>  <JCHEM_BIOAVAILABILITY>  (1) 
1

>  <JCHEM_DONOR_COUNT>  (1) 
1

>  <JCHEM_FORMAL_CHARGE>  (1) 
0

>  <JCHEM_GHOSE_FILTER>  (1) 
1

>  <JCHEM_IUPAC>  (1) 
(1R,2S,10S,11S,13S,14R,15S)-14-(2-chloroacetyl)-1-fluoro-14-hydroxy-2,13,15-trimethyltetracyclo[8.7.0.0^{2,7}.0^{11,15}]heptadeca-3,6-diene-5,17-dione

>  <JCHEM_LOGP>  (1) 
3.599689241333333

>  <JCHEM_MDDR_LIKE_RULE>  (1) 
0

>  <JCHEM_NUMBER_OF_RINGS>  (1) 
4

>  <JCHEM_PHYSIOLOGICAL_CHARGE>  (1) 
0

>  <JCHEM_PKA>  (1) 
14.897540279605739

>  <JCHEM_PKA_STRONGEST_ACIDIC>  (1) 
12.486836352338791

>  <JCHEM_PKA_STRONGEST_BASIC>  (1) 
-3.8950005487266823

>  <JCHEM_POLAR_SURFACE_AREA>  (1) 
71.44

>  <JCHEM_REFRACTIVITY>  (1) 
104.72159999999997

>  <JCHEM_ROTATABLE_BOND_COUNT>  (1) 
2

>  <JCHEM_RULE_OF_FIVE>  (1) 
1

>  <JCHEM_TRADITIONAL_IUPAC>  (1) 
(1R,2S,10S,11S,13S,14R,15S)-14-(2-chloroacetyl)-1-fluoro-14-hydroxy-2,13,15-trimethyltetracyclo[8.7.0.0^{2,7}.0^{11,15}]heptadeca-3,6-diene-5,17-dione

>  <JCHEM_VEBER_RULE>  (1) 
0

>  <MOLECULAR_WEIGHT>  (1) 
408.89

>  <PRODUCTS>  (1) 
Eumovate; Eumovate Crm 0.05%; Eumovate Ont 0.05%; Spectro Eczemacare Medicated Cream

>  <SALTS>  (1) 
Clobetasone butyrate

>  <SMILES>  (1) 
[H][C@]1(C)C[C@@]2([H])[C@]3([H])CCC4=CC(=O)C=C[C@]4(C)[C@@]3(F)C(=O)C[C@]2(C)[C@@]1(O)C(=O)CCl

$$$$
