
     RDKit          2D

104110  0  0  0  0  0  0  0  0999 V2000
   -4.0813    1.6925    0.0000 C   0  0  0  0  0  0  0  0  0  0  0  0
   -4.0813    2.5173    0.0000 C   0  0  0  0  0  0  0  0  0  0  0  0
   -4.8739    2.7744    0.0000 C   0  0  0  0  0  0  0  0  0  0  0  0
   -5.3560    2.1102    0.0000 C   0  0  0  0  0  0  0  0  0  0  0  0
   -4.8739    1.4354    0.0000 C   0  0  0  0  0  0  0  0  0  0  0  0
   -3.3743    2.9350    0.0000 O   0  0  0  0  0  0  0  0  0  0  0  0
   -3.3743    1.2854    0.0000 O   0  0  0  0  0  0  0  0  0  0  0  0
   -3.3743    0.4605    0.0000 C   0  0  0  0  0  0  0  0  0  0  0  0
   -2.6565    0.0428    0.0000 N   0  0  0  0  0  0  0  0  0  0  0  0
   -4.0813    0.0428    0.0000 O   0  0  0  0  0  0  0  0  0  0  0  0
   -2.6565   -0.7819    0.0000 C   0  0  0  0  0  0  0  0  0  0  0  0
   -3.3743   -1.1890    0.0000 C   0  0  0  0  0  0  0  0  0  0  0  0
   -3.3743   -2.0138    0.0000 C   0  0  0  0  0  0  0  0  0  0  0  0
   -4.1670   -0.9748    0.0000 C   0  0  0  0  0  0  0  0  0  0  0  0
   -4.0813   -1.6068    0.0000 C   0  0  0  0  0  0  0  0  0  0  0  0
   -1.9388   -1.1890    0.0000 C   0  0  0  0  0  0  0  0  0  0  0  0
   -1.2318   -0.7819    0.0000 N   0  0  0  0  0  0  0  0  0  0  0  0
   -1.9388   -2.0138    0.0000 O   0  0  0  0  0  0  0  0  0  0  0  0
   -0.4712   -1.1140    0.0000 C   0  0  0  0  0  0  0  0  0  0  0  0
    0.0750   -0.5034    0.0000 C   0  0  0  0  0  0  0  0  0  0  0  0
   -0.3321    0.2142    0.0000 C   0  0  0  0  0  0  0  0  0  0  0  0
   -1.1354    0.0428    0.0000 C   0  0  0  0  0  0  0  0  0  0  0  0
    0.2464   -1.5318    0.0000 C   0  0  0  0  0  0  0  0  0  0  0  0
    0.9534   -1.1140    0.0000 N   0  0  0  0  0  0  0  0  0  0  0  0
    0.2464   -2.3566    0.0000 O   0  0  0  0  0  0  0  0  0  0  0  0
    1.6711   -1.5318    0.0000 C   0  0  0  0  0  0  0  0  0  0  0  0
    0.9534   -1.9388    0.0000 C   0  0  0  0  0  0  0  0  0  0  0  0
    1.6711   -2.3566    0.0000 C   0  0  0  0  0  0  0  0  0  0  0  0
    1.0925   -2.9351    0.0000 C   0  0  0  0  0  0  0  0  0  0  0  0
    0.2678   -2.9351    0.0000 F   0  0  0  0  0  0  0  0  0  0  0  0
    1.4997   -3.6528    0.0000 F   0  0  0  0  0  0  0  0  0  0  0  0
    2.3888   -1.1140    0.0000 C   0  0  0  0  0  0  0  0  0  0  0  0
    2.3888   -0.2892    0.0000 O   0  0  0  0  0  0  0  0  0  0  0  0
    3.1064   -1.5318    0.0000 N   0  0  0  0  0  0  0  0  0  0  0  0
    3.8134   -1.1140    0.0000 S   0  0  0  0  0  0  0  0  0  0  0  0
    3.4064   -0.3963    0.0000 O   0  0  0  0  0  0  0  0  0  0  0  0
    4.2312   -0.3963    0.0000 O   0  0  0  0  0  0  0  0  0  0  0  0
    4.5311   -1.5318    0.0000 C   0  0  0  0  0  0  0  0  0  0  0  0
    4.9382   -2.2388    0.0000 C   0  0  0  0  0  0  0  0  0  0  0  0
    5.3560   -1.5318    0.0000 C   0  0  0  0  0  0  0  0  0  0  0  0
    3.7385   -1.7460    0.0000 C   0  0  0  0  0  0  0  0  0  0  0  0
   -2.6565    2.5173    0.0000 C   0  0  0  0  0  0  0  0  0  0  0  0
   -1.9388    2.9350    0.0000 C   0  0  0  0  0  0  0  0  0  0  0  0
   -1.2318    2.5173    0.0000 C   0  0  0  0  0  0  0  0  0  0  0  0
   -0.5141    2.9350    0.0000 C   0  0  0  0  0  0  0  0  0  0  0  0
   -0.9212    3.6528    0.0000 F   0  0  0  0  0  0  0  0  0  0  0  0
   -0.0964    3.6528    0.0000 F   0  0  0  0  0  0  0  0  0  0  0  0
    0.2035    2.5173    0.0000 C   0  0  0  0  0  0  0  0  0  0  0  0
    0.2035    1.6925    0.0000 C   0  0  0  0  0  0  0  0  0  0  0  0
    0.9212    1.2854    0.0000 N   0  0  0  0  0  0  0  0  0  0  0  0
    1.6282    1.6925    0.0000 C   0  0  0  0  0  0  0  0  0  0  0  0
    1.6282    2.5173    0.0000 C   0  0  0  0  0  0  0  0  0  0  0  0
    0.9212    2.9350    0.0000 N   0  0  0  0  0  0  0  0  0  0  0  0
    2.3459    1.2854    0.0000 C   0  0  0  0  0  0  0  0  0  0  0  0
    3.0636    1.6925    0.0000 C   0  0  0  0  0  0  0  0  0  0  0  0
    3.0636    2.5173    0.0000 C   0  0  0  0  0  0  0  0  0  0  0  0
    2.3459    2.9350    0.0000 C   0  0  0  0  0  0  0  0  0  0  0  0
   -0.5141    1.2854    0.0000 O   0  0  0  0  0  0  0  0  0  0  0  0
    0.0000    0.0000    0.0000 H   0  0  0  0  0  0  0  0  0  0  0  0
    0.0000    0.0000    0.0000 H   0  0  0  0  0  0  0  0  0  0  0  0
    0.0000    0.0000    0.0000 H   0  0  0  0  0  0  0  0  0  0  0  0
    0.0000    0.0000    0.0000 H   0  0  0  0  0  0  0  0  0  0  0  0
    0.0000    0.0000    0.0000 H   0  0  0  0  0  0  0  0  0  0  0  0
    0.0000    0.0000    0.0000 H   0  0  0  0  0  0  0  0  0  0  0  0
    0.0000    0.0000    0.0000 H   0  0  0  0  0  0  0  0  0  0  0  0
    0.0000    0.0000    0.0000 H   0  0  0  0  0  0  0  0  0  0  0  0
    0.0000    0.0000    0.0000 H   0  0  0  0  0  0  0  0  0  0  0  0
    0.0000    0.0000    0.0000 H   0  0  0  0  0  0  0  0  0  0  0  0
    0.0000    0.0000    0.0000 H   0  0  0  0  0  0  0  0  0  0  0  0
    0.0000    0.0000    0.0000 H   0  0  0  0  0  0  0  0  0  0  0  0
    0.0000    0.0000    0.0000 H   0  0  0  0  0  0  0  0  0  0  0  0
    0.0000    0.0000    0.0000 H   0  0  0  0  0  0  0  0  0  0  0  0
    0.0000    0.0000    0.0000 H   0  0  0  0  0  0  0  0  0  0  0  0
    0.0000    0.0000    0.0000 H   0  0  0  0  0  0  0  0  0  0  0  0
    0.0000    0.0000    0.0000 H   0  0  0  0  0  0  0  0  0  0  0  0
    0.0000    0.0000    0.0000 H   0  0  0  0  0  0  0  0  0  0  0  0
    0.0000    0.0000    0.0000 H   0  0  0  0  0  0  0  0  0  0  0  0
    0.0000    0.0000    0.0000 H   0  0  0  0  0  0  0  0  0  0  0  0
    0.0000    0.0000    0.0000 H   0  0  0  0  0  0  0  0  0  0  0  0
    0.0000    0.0000    0.0000 H   0  0  0  0  0  0  0  0  0  0  0  0
    0.0000    0.0000    0.0000 H   0  0  0  0  0  0  0  0  0  0  0  0
    0.0000    0.0000    0.0000 H   0  0  0  0  0  0  0  0  0  0  0  0
    0.0000    0.0000    0.0000 H   0  0  0  0  0  0  0  0  0  0  0  0
    0.0000    0.0000    0.0000 H   0  0  0  0  0  0  0  0  0  0  0  0
    0.0000    0.0000    0.0000 H   0  0  0  0  0  0  0  0  0  0  0  0
    0.0000    0.0000    0.0000 H   0  0  0  0  0  0  0  0  0  0  0  0
    0.0000    0.0000    0.0000 H   0  0  0  0  0  0  0  0  0  0  0  0
    0.0000    0.0000    0.0000 H   0  0  0  0  0  0  0  0  0  0  0  0
    0.0000    0.0000    0.0000 H   0  0  0  0  0  0  0  0  0  0  0  0
    0.0000    0.0000    0.0000 H   0  0  0  0  0  0  0  0  0  0  0  0
    0.0000    0.0000    0.0000 H   0  0  0  0  0  0  0  0  0  0  0  0
    0.0000    0.0000    0.0000 H   0  0  0  0  0  0  0  0  0  0  0  0
    0.0000    0.0000    0.0000 H   0  0  0  0  0  0  0  0  0  0  0  0
    0.0000    0.0000    0.0000 H   0  0  0  0  0  0  0  0  0  0  0  0
    0.0000    0.0000    0.0000 H   0  0  0  0  0  0  0  0  0  0  0  0
    0.0000    0.0000    0.0000 H   0  0  0  0  0  0  0  0  0  0  0  0
    0.0000    0.0000    0.0000 H   0  0  0  0  0  0  0  0  0  0  0  0
    0.0000    0.0000    0.0000 H   0  0  0  0  0  0  0  0  0  0  0  0
    0.0000    0.0000    0.0000 H   0  0  0  0  0  0  0  0  0  0  0  0
    0.0000    0.0000    0.0000 H   0  0  0  0  0  0  0  0  0  0  0  0
    0.0000    0.0000    0.0000 H   0  0  0  0  0  0  0  0  0  0  0  0
    0.0000    0.0000    0.0000 H   0  0  0  0  0  0  0  0  0  0  0  0
    0.0000    0.0000    0.0000 H   0  0  0  0  0  0  0  0  0  0  0  0
    0.0000    0.0000    0.0000 H   0  0  0  0  0  0  0  0  0  0  0  0
  1  2  1  0
  1  5  1  0
  1  7  1  0
  2  3  1  0
  2  6  1  0
  3  4  1  0
  4  5  1  0
  6 42  1  0
  7  8  1  0
  8  9  1  0
  8 10  2  0
  9 11  1  0
 11 12  1  1
 11 16  1  0
 12 13  1  0
 12 14  1  0
 12 15  1  0
 16 17  1  0
 16 18  2  0
 17 19  1  0
 17 22  1  0
 19 20  1  0
 19 23  1  6
 20 21  1  0
 21 22  1  0
 21 58  1  0
 23 24  1  0
 23 25  2  0
 26 24  1  1
 26 27  1  0
 26 28  1  0
 26 32  1  0
 27 28  1  0
 28 29  1  1
 29 30  1  0
 29 31  1  0
 32 33  2  0
 32 34  1  0
 34 35  1  0
 35 36  2  0
 35 37  2  0
 35 38  1  0
 38 39  1  0
 38 40  1  0
 38 41  1  0
 39 40  1  0
 42 43  1  0
 43 44  2  0
 44 45  1  0
 45 46  1  0
 45 47  1  0
 45 48  1  0
 48 49  2  0
 48 53  1  0
 49 50  1  0
 49 58  1  0
 50 51  2  0
 51 52  1  0
 51 54  1  0
 52 53  2  0
 52 57  1  0
 54 55  2  0
 55 56  1  0
 56 57  2  0
  1 59  1  1
  2 60  1  6
  3 61  1  0
  3 62  1  0
  4 63  1  0
  4 64  1  0
  5 65  1  0
  5 66  1  0
  9 67  1  0
 11 68  1  0
 13 69  1  0
 13 70  1  0
 13 71  1  0
 14 72  1  0
 14 73  1  0
 14 74  1  0
 15 75  1  0
 15 76  1  0
 15 77  1  0
 19 78  1  0
 20 79  1  0
 20 80  1  0
 21 81  1  1
 22 82  1  0
 22 83  1  0
 24 84  1  0
 27 85  1  0
 27 86  1  0
 28 87  1  0
 29 88  1  0
 34 89  1  0
 39 90  1  0
 39 91  1  0
 40 92  1  0
 40 93  1  0
 41 94  1  0
 41 95  1  0
 41 96  1  0
 42 97  1  0
 42 98  1  0
 43 99  1  0
 44100  1  0
 54101  1  0
 55102  1  0
 56103  1  0
 57104  1  0
M  END
>  <ALOGPS_LOGP>  (1) 
4.26

>  <ALOGPS_LOGS>  (1) 
-4.26

>  <ALOGPS_SOLUBILITY>  (1) 
4.63e-02 g/l

>  <DATABASE_ID>  (1) 
DB13879

>  <DATABASE_NAME>  (1) 
drugbank

>  <DRUGBANK_ID>  (1) 
DB13879

>  <DRUG_GROUPS>  (1) 
approved

>  <EXACT_MASS>  (1) 
838.298310911

>  <FORMULA>  (1) 
C38H46F4N6O9S

>  <GENERIC_NAME>  (1) 
Glecaprevir

>  <INCHI_IDENTIFIER>  (1) 
InChI=1S/C38H46F4N6O9S/c1-35(2,3)28-32(50)48-19-20(17-24(48)30(49)46-37(18-21(37)29(39)40)33(51)47-58(53,54)36(4)14-15-36)56-31-27(43-22-9-5-6-10-23(22)44-31)38(41,42)13-8-16-55-25-11-7-12-26(25)57-34(52)45-28/h5-6,8-10,13,20-21,24-26,28-29H,7,11-12,14-19H2,1-4H3,(H,45,52)(H,46,49)(H,47,51)/b13-8+/t20-,21+,24+,25-,26-,28-,37-/m1/s1

>  <INCHI_KEY>  (1) 
MLSQGNCUYAMAHD-ITNVBOSISA-N

>  <JCHEM_ACCEPTOR_COUNT>  (1) 
10

>  <JCHEM_ATOM_COUNT>  (1) 
104

>  <JCHEM_AVERAGE_POLARIZABILITY>  (1) 
80.15686277143455

>  <JCHEM_BIOAVAILABILITY>  (1) 
1

>  <JCHEM_DONOR_COUNT>  (1) 
3

>  <JCHEM_FORMAL_CHARGE>  (1) 
0

>  <JCHEM_GHOSE_FILTER>  (1) 
0

>  <JCHEM_IUPAC>  (1) 
(1R,14E,18R,22R,26S,29S)-26-tert-butyl-N-[(1R,2R)-2-(difluoromethyl)-1-{[(1-methylcyclopropyl)sulfonyl]carbamoyl}cyclopropyl]-13,13-difluoro-24,27-dioxo-2,17,23-trioxa-4,11,25,28-tetraazapentacyclo[26.2.1.0^{3,12}.0^{5,10}.0^{18,22}]hentriaconta-3,5(10),6,8,11,14-hexaene-29-carboxamide

>  <JCHEM_LOGP>  (1) 
3.9549761359999973

>  <JCHEM_MDDR_LIKE_RULE>  (1) 
1

>  <JCHEM_NUMBER_OF_RINGS>  (1) 
7

>  <JCHEM_PHYSIOLOGICAL_CHARGE>  (1) 
-1

>  <JCHEM_PKA>  (1) 
11.119964403304545

>  <JCHEM_PKA_STRONGEST_ACIDIC>  (1) 
3.7443631239978403

>  <JCHEM_PKA_STRONGEST_BASIC>  (1) 
-1.196435525666657

>  <JCHEM_POLAR_SURFACE_AREA>  (1) 
195.21999999999994

>  <JCHEM_REFRACTIVITY>  (1) 
194.5508999999999

>  <JCHEM_ROTATABLE_BOND_COUNT>  (1) 
6

>  <JCHEM_RULE_OF_FIVE>  (1) 
0

>  <JCHEM_TRADITIONAL_IUPAC>  (1) 
(1R,14E,18R,22R,26S,29S)-26-tert-butyl-N-[(1R,2R)-2-(difluoromethyl)-1-[(1-methylcyclopropylsulfonyl)carbamoyl]cyclopropyl]-13,13-difluoro-24,27-dioxo-2,17,23-trioxa-4,11,25,28-tetraazapentacyclo[26.2.1.0^{3,12}.0^{5,10}.0^{18,22}]hentriaconta-3,5(10),6,8,11,14-hexaene-29-carboxamide

>  <JCHEM_VEBER_RULE>  (1) 
0

>  <MOLECULAR_WEIGHT>  (1) 
838.87

>  <PRODUCTS>  (1) 
Maviret; Mavyret

>  <SMILES>  (1) 
CC(C)(C)[C@@H]1NC(=O)O[C@@H]2CCC[C@H]2OC\C=C\C(F)(F)C2=NC3=C(C=CC=C3)N=C2O[C@@H]2C[C@H](N(C2)C1=O)C(=O)N[C@@]1(C[C@H]1C(F)F)C(=O)NS(=O)(=O)C1(C)CC1

>  <SYNONYMS>  (1) 
(3aR,7S,10S,12R,21E,24aR)-7-tert-butyl-N-{(1R,2R)-2­ (difluoromethyl)-1-[(1-methylcyclopropane-1-sulfonyl)carbamoyl]cyclopropyl}-20,20-difluoro­ 5,8-dioxo-2,3,3a,5,6,7,8,11,12,20,23,24a-dodecahydro-1H,10H-9,12­ methanocyclopenta[18,19][1,10,17,3,6]trioxadiazacyclononadecino[11,12-b]quinoxaline-10­ carboxamide hydrate; Glécaprévir; glecaprevirum

$$$$
