
     RDKit          2D

 70 70  0  0  0  0  0  0  0  0999 V2000
    4.1910   -2.6627    0.0000 O   0  0  0  0  0  0  0  0  0  0  0  0
    4.2276   -1.8385    0.0000 C   0  0  0  0  0  0  0  0  0  0  0  0
    3.5322   -1.3947    0.0000 C   0  0  0  0  0  0  0  0  0  0  0  0
    2.8001   -1.7751    0.0000 C   0  0  0  0  0  0  0  0  0  0  0  0
    2.1046   -1.3313    0.0000 C   0  0  0  0  0  0  0  0  0  0  0  0
    1.3726   -1.7117    0.0000 O   0  0  0  0  0  0  0  0  0  0  0  0
    0.6771   -1.2679    0.0000 Ca  0  0  0  0  0  0  0  0  0  0  0  0
   -0.0183   -0.8241    0.0000 O   0  0  0  0  0  0  0  0  0  0  0  0
   -0.7503   -1.2045    0.0000 C   0  0  0  0  0  0  0  0  0  0  0  0
   -1.4458   -0.7607    0.0000 C   0  0  0  0  0  0  0  0  0  0  0  0
   -2.1779   -1.1411    0.0000 C   0  0  0  0  0  0  0  0  0  0  0  0
   -2.2145   -1.9653    0.0000 O   0  0  0  0  0  0  0  0  0  0  0  0
   -2.8733   -0.6973    0.0000 C   0  0  0  0  0  0  0  0  0  0  0  0
   -2.8367    0.1267    0.0000 O   0  0  0  0  0  0  0  0  0  0  0  0
   -3.5322    0.5705    0.0000 C   0  0  0  0  0  0  0  0  0  0  0  0
   -4.2643    0.1901    0.0000 O   0  0  0  0  0  0  0  0  0  0  0  0
   -4.9597    0.6339    0.0000 C   0  0  0  0  0  0  0  0  0  0  0  0
   -4.9231    1.4581    0.0000 C   0  0  0  0  0  0  0  0  0  0  0  0
   -5.6186    1.9019    0.0000 O   0  0  0  0  0  0  0  0  0  0  0  0
   -4.1910    1.8385    0.0000 C   0  0  0  0  0  0  0  0  0  0  0  0
   -4.1544    2.6627    0.0000 O   0  0  0  0  0  0  0  0  0  0  0  0
   -3.4956    1.3947    0.0000 C   0  0  0  0  0  0  0  0  0  0  0  0
   -2.7635    1.7751    0.0000 O   0  0  0  0  0  0  0  0  0  0  0  0
   -5.6918    0.2535    0.0000 C   0  0  0  0  0  0  0  0  0  0  0  0
   -6.3873    0.6973    0.0000 O   0  0  0  0  0  0  0  0  0  0  0  0
   -3.6054   -1.0777    0.0000 C   0  0  0  0  0  0  0  0  0  0  0  0
   -3.6420   -1.9019    0.0000 C   0  0  0  0  0  0  0  0  0  0  0  0
   -4.3741   -2.2823    0.0000 O   0  0  0  0  0  0  0  0  0  0  0  0
   -4.3009   -0.6339    0.0000 O   0  0  0  0  0  0  0  0  0  0  0  0
   -1.4092    0.0633    0.0000 O   0  0  0  0  0  0  0  0  0  0  0  0
   -0.7869   -2.0287    0.0000 O   0  0  0  0  0  0  0  0  0  0  0  0
    2.1413   -0.5071    0.0000 O   0  0  0  0  0  0  0  0  0  0  0  0
    2.7635   -2.5993    0.0000 O   0  0  0  0  0  0  0  0  0  0  0  0
    3.5688   -0.5705    0.0000 O   0  0  0  0  0  0  0  0  0  0  0  0
    4.9597   -1.4581    0.0000 C   0  0  0  0  0  0  0  0  0  0  0  0
    5.6552   -1.9019    0.0000 C   0  0  0  0  0  0  0  0  0  0  0  0
    6.3873   -1.5215    0.0000 O   0  0  0  0  0  0  0  0  0  0  0  0
    4.9963   -0.6339    0.0000 O   0  0  0  0  0  0  0  0  0  0  0  0
    0.0000    0.0000    0.0000 H   0  0  0  0  0  0  0  0  0  0  0  0
    0.0000    0.0000    0.0000 H   0  0  0  0  0  0  0  0  0  0  0  0
    0.0000    0.0000    0.0000 H   0  0  0  0  0  0  0  0  0  0  0  0
    0.0000    0.0000    0.0000 H   0  0  0  0  0  0  0  0  0  0  0  0
    0.0000    0.0000    0.0000 H   0  0  0  0  0  0  0  0  0  0  0  0
    0.0000    0.0000    0.0000 H   0  0  0  0  0  0  0  0  0  0  0  0
    0.0000    0.0000    0.0000 H   0  0  0  0  0  0  0  0  0  0  0  0
    0.0000    0.0000    0.0000 H   0  0  0  0  0  0  0  0  0  0  0  0
    0.0000    0.0000    0.0000 H   0  0  0  0  0  0  0  0  0  0  0  0
    0.0000    0.0000    0.0000 H   0  0  0  0  0  0  0  0  0  0  0  0
    0.0000    0.0000    0.0000 H   0  0  0  0  0  0  0  0  0  0  0  0
    0.0000    0.0000    0.0000 H   0  0  0  0  0  0  0  0  0  0  0  0
    0.0000    0.0000    0.0000 H   0  0  0  0  0  0  0  0  0  0  0  0
    0.0000    0.0000    0.0000 H   0  0  0  0  0  0  0  0  0  0  0  0
    0.0000    0.0000    0.0000 H   0  0  0  0  0  0  0  0  0  0  0  0
    0.0000    0.0000    0.0000 H   0  0  0  0  0  0  0  0  0  0  0  0
    0.0000    0.0000    0.0000 H   0  0  0  0  0  0  0  0  0  0  0  0
    0.0000    0.0000    0.0000 H   0  0  0  0  0  0  0  0  0  0  0  0
    0.0000    0.0000    0.0000 H   0  0  0  0  0  0  0  0  0  0  0  0
    0.0000    0.0000    0.0000 H   0  0  0  0  0  0  0  0  0  0  0  0
    0.0000    0.0000    0.0000 H   0  0  0  0  0  0  0  0  0  0  0  0
    0.0000    0.0000    0.0000 H   0  0  0  0  0  0  0  0  0  0  0  0
    0.0000    0.0000    0.0000 H   0  0  0  0  0  0  0  0  0  0  0  0
    0.0000    0.0000    0.0000 H   0  0  0  0  0  0  0  0  0  0  0  0
    0.0000    0.0000    0.0000 H   0  0  0  0  0  0  0  0  0  0  0  0
    0.0000    0.0000    0.0000 H   0  0  0  0  0  0  0  0  0  0  0  0
    0.0000    0.0000    0.0000 H   0  0  0  0  0  0  0  0  0  0  0  0
    0.0000    0.0000    0.0000 H   0  0  0  0  0  0  0  0  0  0  0  0
    0.0000    0.0000    0.0000 H   0  0  0  0  0  0  0  0  0  0  0  0
    0.0000    0.0000    0.0000 H   0  0  0  0  0  0  0  0  0  0  0  0
    0.0000    0.0000    0.0000 H   0  0  0  0  0  0  0  0  0  0  0  0
    0.0000    0.0000    0.0000 H   0  0  0  0  0  0  0  0  0  0  0  0
  2  1  1  1
  2  3  1  0
  3  4  1  0
  4  5  1  1
  5  6  1  0
  6  7  1  0
  7  8  1  0
  8  9  1  0
 10  9  1  1
 10 11  1  0
 11 12  1  6
 11 13  1  0
 13 14  1  1
 15 14  1  6
 15 16  1  0
 16 17  1  0
 17 18  1  0
 18 19  1  1
 18 20  1  0
 20 21  1  1
 20 22  1  0
 15 22  1  0
 22 23  1  1
 17 24  1  1
 24 25  1  0
 13 26  1  0
 26 27  1  1
 27 28  1  0
 26 29  1  0
 10 30  1  0
  9 31  2  0
  5 32  2  0
  4 33  1  0
  3 34  1  1
  2 35  1  0
 35 36  1  1
 36 37  1  0
 35 38  1  0
  1 39  1  0
  2 40  1  0
  3 41  1  0
  4 42  1  0
 10 43  1  0
 11 44  1  0
 12 45  1  0
 13 46  1  0
 15 47  1  0
 17 48  1  0
 18 49  1  0
 19 50  1  0
 20 51  1  0
 21 52  1  0
 22 53  1  0
 23 54  1  0
 24 55  1  0
 24 56  1  0
 25 57  1  0
 26 58  1  0
 27 59  1  0
 27 60  1  0
 28 61  1  0
 29 62  1  0
 30 63  1  0
 33 64  1  0
 34 65  1  0
 35 66  1  0
 36 67  1  0
 36 68  1  0
 37 69  1  0
 38 70  1  0
M  END
>  <ALOGPS_LOGP>  (1) 
-2.47

>  <ALOGPS_LOGS>  (1) 
-1.10

>  <ALOGPS_SOLUBILITY>  (1) 
4.72e+01 g/l

>  <DATABASE_ID>  (1) 
DB13142

>  <DATABASE_NAME>  (1) 
drugbank

>  <DRUGBANK_ID>  (1) 
DB13142

>  <DRUG_GROUPS>  (1) 
approved

>  <EXACT_MASS>  (1) 
592.1163697

>  <FORMULA>  (1) 
C18H32CaO19

>  <GENERIC_NAME>  (1) 
Calcium glubionate

>  <INCHI_IDENTIFIER>  (1) 
InChI=1S/C12H22O12.C6H12O7.Ca/c13-1-3(15)10(7(18)8(19)11(21)22)24-12-9(20)6(17)5(16)4(2-14)23-12;7-1-2(8)3(9)4(10)5(11)6(12)13;/h3-10,12-20H,1-2H2,(H,21,22);2-5,7-11H,1H2,(H,12,13);/q;;+2/p-2/t3-,4-,5+,6-,7-,8-,9-,10-,12+;2-,3-,4+,5-;/m11./s1

>  <INCHI_KEY>  (1) 
YPCRNBPOUVJVMU-DTRXJECDSA-L

>  <JCHEM_ACCEPTOR_COUNT>  (1) 
17

>  <JCHEM_ATOM_COUNT>  (1) 
70

>  <JCHEM_AVERAGE_POLARIZABILITY>  (1) 
50.75623754696364

>  <JCHEM_BIOAVAILABILITY>  (1) 
0

>  <JCHEM_DONOR_COUNT>  (1) 
13

>  <JCHEM_FORMAL_CHARGE>  (1) 
0

>  <JCHEM_GHOSE_FILTER>  (1) 
0

>  <JCHEM_IUPAC>  (1) 
{[(2R,3R,4R,5R)-2,3,5,6-tetrahydroxy-4-{[(2S,3R,4R,5R,6R)-3,4,5-trihydroxy-6-(hydroxymethyl)oxan-2-yl]oxy}hexanoyl]oxy}calcio (2R,3S,4R,5R)-2,3,4,5,6-pentahydroxyhexanoate

>  <JCHEM_LOGP>  (1) 
-9.572500000000002

>  <JCHEM_MDDR_LIKE_RULE>  (1) 
0

>  <JCHEM_NUMBER_OF_RINGS>  (1) 
1

>  <JCHEM_PHYSIOLOGICAL_CHARGE>  (1) 
0

>  <JCHEM_PKA>  (1) 
11.821610118598173

>  <JCHEM_PKA_STRONGEST_ACIDIC>  (1) 
11.315675013776392

>  <JCHEM_PKA_STRONGEST_BASIC>  (1) 
-3.647050967806548

>  <JCHEM_POLAR_SURFACE_AREA>  (1) 
334.05

>  <JCHEM_REFRACTIVITY>  (1) 
107.10009999999997

>  <JCHEM_ROTATABLE_BOND_COUNT>  (1) 
17

>  <JCHEM_RULE_OF_FIVE>  (1) 
0

>  <JCHEM_TRADITIONAL_IUPAC>  (1) 
{[(2R,3R,4R,5R)-2,3,5,6-tetrahydroxy-4-{[(2S,3R,4R,5R,6R)-3,4,5-trihydroxy-6-(hydroxymethyl)oxan-2-yl]oxy}hexanoyl]oxy}calcio (2R,3S,4R,5R)-2,3,4,5,6-pentahydroxyhexanoate

>  <JCHEM_VEBER_RULE>  (1) 
0

>  <MOLECULAR_WEIGHT>  (1) 
592.513

>  <SALTS>  (1) 
Calcium D-gluconate lactobionate monohydrate

>  <SMILES>  (1) 
OC[C@@H](O)[C@@H](O)[C@H](O)[C@@H](O)C(=O)O[Ca]OC(=O)[C@H](O)[C@@H](O)[C@H](O[C@@H]1O[C@H](CO)[C@H](O)[C@@H](O)[C@H]1O)[C@H](O)CO

>  <SYNONYMS>  (1) 
(D-gluconato)(lactobionato)calcium; Calcium D-gluconate lactobionate; Calcium glubionate anhydrous; Glubionate calcium

$$$$
