
     RDKit          2D

 37 38  0  0  0  0  0  0  0  0999 V2000
   -1.0717   -0.4125    0.0000 C   0  0  0  0  0  0  0  0  0  0  0  0
   -0.3572   -0.8250    0.0000 C   0  0  0  0  0  0  0  0  0  0  0  0
    0.3572   -0.4125    0.0000 C   0  0  0  0  0  0  0  0  0  0  0  0
    1.0717   -0.8250    0.0000 C   0  0  0  0  0  0  0  0  0  0  0  0
    1.7861   -0.4125    0.0000 C   0  0  0  0  0  0  0  0  0  0  0  0
    2.5006   -0.8250    0.0000 C   0  0  0  0  0  0  0  0  0  0  0  0
    2.5006   -1.6500    0.0000 C   0  0  0  0  0  0  0  0  0  0  0  0
    3.2151   -2.0625    0.0000 O   0  0  0  0  0  0  0  0  0  0  0  0
    1.7861   -2.0625    0.0000 C   0  0  0  0  0  0  0  0  0  0  0  0
    1.0717   -1.6500    0.0000 C   0  0  0  0  0  0  0  0  0  0  0  0
    0.3572   -2.0625    0.0000 O   0  0  0  0  0  0  0  0  0  0  0  0
   -0.3572   -1.6500    0.0000 C   0  0  0  0  0  0  0  0  0  0  0  0
   -1.0717   -2.0625    0.0000 C   0  0  0  0  0  0  0  0  0  0  0  0
   -1.7861   -1.6500    0.0000 C   0  0  0  0  0  0  0  0  0  0  0  0
   -1.7861   -0.8250    0.0000 C   0  0  0  0  0  0  0  0  0  0  0  0
   -2.5006   -0.4125    0.0000 Br  0  0  0  0  0  0  0  0  0  0  0  0
   -2.5006   -2.0625    0.0000 O   0  0  0  0  0  0  0  0  0  0  0  0
   -1.0717   -2.8875    0.0000 Br  0  0  0  0  0  0  0  0  0  0  0  0
    1.7861   -2.8875    0.0000 Br  0  0  0  0  0  0  0  0  0  0  0  0
    3.2151   -0.4125    0.0000 Br  0  0  0  0  0  0  0  0  0  0  0  0
    0.3572    0.4125    0.0000 C   0  0  0  0  0  0  0  0  0  0  0  0
   -0.3572    0.8250    0.0000 C   0  0  0  0  0  0  0  0  0  0  0  0
   -0.3572    1.6500    0.0000 C   0  0  0  0  0  0  0  0  0  0  0  0
    0.3572    2.0625    0.0000 C   0  0  0  0  0  0  0  0  0  0  0  0
    1.0717    1.6500    0.0000 C   0  0  0  0  0  0  0  0  0  0  0  0
    1.0717    0.8250    0.0000 C   0  0  0  0  0  0  0  0  0  0  0  0
    1.7861    0.4125    0.0000 Cl  0  0  0  0  0  0  0  0  0  0  0  0
    1.7861    2.0625    0.0000 Cl  0  0  0  0  0  0  0  0  0  0  0  0
    0.3572    2.8875    0.0000 Cl  0  0  0  0  0  0  0  0  0  0  0  0
   -1.0717    2.0625    0.0000 Cl  0  0  0  0  0  0  0  0  0  0  0  0
   -1.0717    0.4125    0.0000 C   0  0  0  0  0  0  0  0  0  0  0  0
   -1.5566   -0.2549    0.0000 O   0  0  0  0  0  0  0  0  0  0  0  0
   -1.7861    0.8250    0.0000 O   0  0  0  0  0  0  0  0  0  0  0  0
   -3.2151   -2.4750    0.0000 Na  0  0  0  0  0  0  0  0  0  0  0  0
   -2.5006    1.2375    0.0000 Na  0  0  0  0  0  0  0  0  0  0  0  0
    0.0000    0.0000    0.0000 H   0  0  0  0  0  0  0  0  0  0  0  0
    0.0000    0.0000    0.0000 H   0  0  0  0  0  0  0  0  0  0  0  0
  1  2  2  0
  2  3  1  0
  3  4  2  0
  4  5  1  0
  5  6  2  0
  6  7  1  0
  7  8  2  0
  7  9  1  0
  9 10  2  0
  4 10  1  0
 10 11  1  0
 11 12  1  0
  2 12  1  0
 12 13  2  0
 13 14  1  0
 14 15  2  0
  1 15  1  0
 15 16  1  0
 14 17  1  0
 13 18  1  0
  9 19  1  0
  6 20  1  0
  3 21  1  0
 21 22  2  0
 22 23  1  0
 23 24  2  0
 24 25  1  0
 25 26  2  0
 21 26  1  0
 26 27  1  0
 25 28  1  0
 24 29  1  0
 23 30  1  0
 22 31  1  0
 31 32  2  0
 31 33  1  0
  1 36  1  0
  5 37  1  0
M  CHG  4  17  -1  33  -1  34   1  35   1
M  END
>  <ALOGPS_LOGP>  (1) 
7.71

>  <ALOGPS_LOGS>  (1) 
-7.04

>  <ALOGPS_SOLUBILITY>  (1) 
7.49e-05 g/l

>  <DATABASE_ID>  (1) 
DB13911

>  <DATABASE_NAME>  (1) 
drugbank

>  <DRUGBANK_ID>  (1) 
DB13911

>  <DRUG_GROUPS>  (1) 
approved; experimental

>  <EXACT_MASS>  (1) 
823.518525

>  <FORMULA>  (1) 
C20H2Br4Cl4Na2O5

>  <GENERIC_NAME>  (1) 
Phloxine B

>  <INCHI_IDENTIFIER>  (1) 
InChI=1S/C20H4Br4Cl4O5.2Na/c21-5-1-3-7(8-9(20(31)32)13(26)15(28)14(27)12(8)25)4-2-6(22)17(30)11(24)19(4)33-18(3)10(23)16(5)29;;/h1-2,29H,(H,31,32);;/q;2*+1/p-2

>  <INCHI_KEY>  (1) 
GVKCHTBDSMQENH-UHFFFAOYSA-L

>  <JCHEM_ACCEPTOR_COUNT>  (1) 
5

>  <JCHEM_ATOM_COUNT>  (1) 
37

>  <JCHEM_AVERAGE_POLARIZABILITY>  (1) 
54.709711188059046

>  <JCHEM_BIOAVAILABILITY>  (1) 
0

>  <JCHEM_DONOR_COUNT>  (1) 
0

>  <JCHEM_FORMAL_CHARGE>  (1) 
0

>  <JCHEM_GHOSE_FILTER>  (1) 
0

>  <JCHEM_IUPAC>  (1) 
disodium 2,3,4,5-tetrachloro-6-(2,4,5,7-tetrabromo-6-oxido-3-oxo-3H-xanthen-9-yl)benzoate

>  <JCHEM_LOGP>  (1) 
8.16113112322972

>  <JCHEM_MDDR_LIKE_RULE>  (1) 
0

>  <JCHEM_NUMBER_OF_RINGS>  (1) 
4

>  <JCHEM_PHYSIOLOGICAL_CHARGE>  (1) 
-2

>  <JCHEM_PKA>  (1) 
3.762702801627393

>  <JCHEM_PKA_STRONGEST_ACIDIC>  (1) 
2.5162194886128

>  <JCHEM_PKA_STRONGEST_BASIC>  (1) 
1.8426082822273937

>  <JCHEM_POLAR_SURFACE_AREA>  (1) 
89.49000000000001

>  <JCHEM_REFRACTIVITY>  (1) 
174.48340000000002

>  <JCHEM_ROTATABLE_BOND_COUNT>  (1) 
1

>  <JCHEM_RULE_OF_FIVE>  (1) 
0

>  <JCHEM_TRADITIONAL_IUPAC>  (1) 
disodium 2,3,4,5-tetrachloro-6-(2,4,5,7-tetrabromo-3-oxido-6-oxoxanthen-9-yl)benzoate

>  <JCHEM_VEBER_RULE>  (1) 
0

>  <MOLECULAR_WEIGHT>  (1) 
829.63

>  <PRODUCTS>  (1) 
Disclose Dry Handle Swab; Red-cote

>  <SMILES>  (1) 
[Na+].[Na+].[O-]C(=O)C1=C(C(Cl)=C(Cl)C(Cl)=C1Cl)C1=C2C=C(Br)C(=O)C(Br)=C2OC2=C(Br)C([O-])=C(Br)C=C12

>  <SYNONYMS>  (1) 
CI Acid Red 92; Cyanosin; D&C Red No. 28; Disodium 2',4',5',7'-tetrabromo-4,5,6,7-tetrachlorofluorescein; Phloxine

$$$$
