
     RDKit          2D

 27 18  0  0  0  0  0  0  0  0999 V2000
    2.4334   -1.8146    0.0000 O   0  0  0  0  0  0  0  0  0  0  0  0
   -1.9384   -1.8971    0.0000 O   0  0  0  0  0  0  0  0  0  0  0  0
   -0.3709   -1.8971    0.0000 O   0  0  0  0  0  0  0  0  0  0  0  0
   -3.2584   -1.8146    0.0000 O   0  0  0  0  0  0  0  0  0  0  0  0
    3.5884   -1.8971    0.0000 O   0  0  0  0  0  0  0  0  0  0  0  0
   -4.2484   -1.7321    0.0000 O   0  0  0  0  0  0  0  0  0  0  0  0
    1.1133   -1.8971    0.0000 O   0  0  0  0  0  0  0  0  0  0  0  0
   -1.1133    0.4121    0.0000 Fe  0  0  0  0  0  0  0  0  0  0  0  0
    3.4234    0.2471    0.0000 O   0  0  0  0  0  0  0  0  0  0  0  0
    3.4234    1.0721    0.0000 S   0  0  0  0  0  0  0  0  0  0  0  0
    4.2484    1.0721    0.0000 O   0  0  0  0  0  0  0  0  0  0  0  0
    2.5984    1.0721    0.0000 O   0  0  0  0  0  0  0  0  0  0  0  0
    3.4234    1.8971    0.0000 O   0  0  0  0  0  0  0  0  0  0  0  0
    0.0000    0.0000    0.0000 H   0  0  0  0  0  0  0  0  0  0  0  0
    0.0000    0.0000    0.0000 H   0  0  0  0  0  0  0  0  0  0  0  0
    0.0000    0.0000    0.0000 H   0  0  0  0  0  0  0  0  0  0  0  0
    0.0000    0.0000    0.0000 H   0  0  0  0  0  0  0  0  0  0  0  0
    0.0000    0.0000    0.0000 H   0  0  0  0  0  0  0  0  0  0  0  0
    0.0000    0.0000    0.0000 H   0  0  0  0  0  0  0  0  0  0  0  0
    0.0000    0.0000    0.0000 H   0  0  0  0  0  0  0  0  0  0  0  0
    0.0000    0.0000    0.0000 H   0  0  0  0  0  0  0  0  0  0  0  0
    0.0000    0.0000    0.0000 H   0  0  0  0  0  0  0  0  0  0  0  0
    0.0000    0.0000    0.0000 H   0  0  0  0  0  0  0  0  0  0  0  0
    0.0000    0.0000    0.0000 H   0  0  0  0  0  0  0  0  0  0  0  0
    0.0000    0.0000    0.0000 H   0  0  0  0  0  0  0  0  0  0  0  0
    0.0000    0.0000    0.0000 H   0  0  0  0  0  0  0  0  0  0  0  0
    0.0000    0.0000    0.0000 H   0  0  0  0  0  0  0  0  0  0  0  0
  9 10  2  0
 10 11  1  0
 10 12  1  0
 10 13  2  0
  1 14  1  0
  1 15  1  0
  2 16  1  0
  2 17  1  0
  3 18  1  0
  3 19  1  0
  4 20  1  0
  4 21  1  0
  5 22  1  0
  5 23  1  0
  6 24  1  0
  6 25  1  0
  7 26  1  0
  7 27  1  0
M  CHG  3   8   2  11  -1  12  -1
M  END
>  <DATABASE_ID>  (1) 
DB13257

>  <DATABASE_NAME>  (1) 
drugbank

>  <DRUGBANK_ID>  (1) 
DB13257

>  <DRUG_GROUPS>  (1) 
approved; experimental

>  <EXACT_MASS>  (1) 
277.960624113

>  <FORMULA>  (1) 
FeH14O11S

>  <GENERIC_NAME>  (1) 
Ferrous sulfate

>  <INCHI_IDENTIFIER>  (1) 
InChI=1S/Fe.H2O4S.7H2O/c;1-5(2,3)4;;;;;;;/h;(H2,1,2,3,4);7*1H2/q+2;;;;;;;;/p-2

>  <INCHI_KEY>  (1) 
SURQXAFEQWPFPV-UHFFFAOYSA-L

>  <JCHEM_ACCEPTOR_COUNT>  (1) 
4

>  <JCHEM_AVERAGE_POLARIZABILITY>  (1) 
5.80529087763678

>  <JCHEM_BIOAVAILABILITY>  (1) 
1

>  <JCHEM_DONOR_COUNT>  (1) 
0

>  <JCHEM_FORMAL_CHARGE>  (1) 
0

>  <JCHEM_GHOSE_FILTER>  (1) 
0

>  <JCHEM_IUPAC>  (1) 
λ²-iron(2+) ion heptahydrate sulfate

>  <JCHEM_LOGP>  (1) 
-0.8415520233333333

>  <JCHEM_MDDR_LIKE_RULE>  (1) 
0

>  <JCHEM_NUMBER_OF_RINGS>  (1) 
0

>  <JCHEM_PHYSIOLOGICAL_CHARGE>  (1) 
-2

>  <JCHEM_PKA>  (1) 
1.8964254257138693

>  <JCHEM_PKA_STRONGEST_ACIDIC>  (1) 
-3.034349054191991

>  <JCHEM_POLAR_SURFACE_AREA>  (1) 
80.25999999999999

>  <JCHEM_REFRACTIVITY>  (1) 
11.5274

>  <JCHEM_ROTATABLE_BOND_COUNT>  (1) 
0

>  <JCHEM_RULE_OF_FIVE>  (1) 
1

>  <JCHEM_TRADITIONAL_IUPAC>  (1) 
λ²-iron(2+) ion heptahydrate sulfate

>  <JCHEM_VEBER_RULE>  (1) 
0

>  <MOLECULAR_WEIGHT>  (1) 
278.015

>  <PRODUCTS>  (1) 
Ferrous Sulfate; Multi Vitamin Drops with Fluoride and Iron; Multi-Vit with Fluoride and Iron; MultiVitamin Drops with Fluoride and Iron; Multivitamins W Minerals Extra Strength; Tri-Vit With Fluoride And Iron Drops

>  <SMILES>  (1) 
O.O.O.O.O.O.O.[Fe++].[O-]S([O-])(=O)=O

$$$$
