
     RDKit          2D

 22 23  0  0  0  0  0  0  0  0999 V2000
   -2.0367    6.0027    0.0000 C   0  0  0  0  0  0  0  0  0  0  0  0
   -0.6078    3.5277    0.0000 C   0  0  0  0  0  0  0  0  0  0  0  0
   -2.0367    3.5277    0.0000 C   0  0  0  0  0  0  0  0  0  0  0  0
   -0.6078    4.3527    0.0000 C   0  0  0  0  0  0  0  0  0  0  0  0
   -2.0367    4.3527    0.0000 C   0  0  0  0  0  0  0  0  0  0  0  0
   -0.6548    1.8053    0.0000 C   0  0  0  0  0  0  0  0  0  0  0  0
   -1.3222    3.1152    0.0000 C   0  0  0  0  0  0  0  0  0  0  0  0
   -1.3222    4.7652    0.0000 C   0  0  0  0  0  0  0  0  0  0  0  0
   -1.3222    2.2902    0.0000 C   0  0  0  0  0  0  0  0  0  0  0  0
   -0.9097    1.0206    0.0000 C   0  0  0  0  0  0  0  0  0  0  0  0
   -1.3222    5.5902    0.0000 O   0  0  0  0  0  0  0  0  0  0  0  0
   -0.4248    0.3532    0.0000 S   0  0  0  0  0  0  0  0  0  0  0  0
   -1.9897    1.8053    0.0000 S   0  0  0  0  0  0  0  0  0  0  0  0
   -1.7347    1.0206    0.0000 S   0  0  0  0  0  0  0  0  0  0  0  0
    0.0000    0.0000    0.0000 H   0  0  0  0  0  0  0  0  0  0  0  0
    0.0000    0.0000    0.0000 H   0  0  0  0  0  0  0  0  0  0  0  0
    0.0000    0.0000    0.0000 H   0  0  0  0  0  0  0  0  0  0  0  0
    0.0000    0.0000    0.0000 H   0  0  0  0  0  0  0  0  0  0  0  0
    0.0000    0.0000    0.0000 H   0  0  0  0  0  0  0  0  0  0  0  0
    0.0000    0.0000    0.0000 H   0  0  0  0  0  0  0  0  0  0  0  0
    0.0000    0.0000    0.0000 H   0  0  0  0  0  0  0  0  0  0  0  0
    0.0000    0.0000    0.0000 H   0  0  0  0  0  0  0  0  0  0  0  0
  4  2  2  0
  5  3  1  0
  7  2  1  0
  7  3  2  0
  8  4  1  0
  8  5  2  0
  9  6  2  0
  9  7  1  0
 10  6  1  0
 11  1  1  0
 11  8  1  0
 12 10  2  0
 13  9  1  0
 14 10  1  0
 14 13  1  0
  1 15  1  0
  1 16  1  0
  1 17  1  0
  2 18  1  0
  3 19  1  0
  4 20  1  0
  5 21  1  0
  6 22  1  0
M  END
>  <ALOGPS_LOGP>  (1) 
3.58

>  <ALOGPS_LOGS>  (1) 
-4.44

>  <ALOGPS_SOLUBILITY>  (1) 
8.79e-03 g/l

>  <DATABASE_ID>  (1) 
DB13853

>  <DATABASE_NAME>  (1) 
drugbank

>  <DRUGBANK_ID>  (1) 
DB13853

>  <DRUG_GROUPS>  (1) 
approved; experimental

>  <EXACT_MASS>  (1) 
239.9737284

>  <FORMULA>  (1) 
C10H8OS3

>  <GENERIC_NAME>  (1) 
Anethole trithione

>  <INCHI_IDENTIFIER>  (1) 
InChI=1S/C10H8OS3/c1-11-8-4-2-7(3-5-8)9-6-10(12)14-13-9/h2-6H,1H3

>  <INCHI_KEY>  (1) 
KYLIZBIRMBGUOP-UHFFFAOYSA-N

>  <JCHEM_ACCEPTOR_COUNT>  (1) 
1

>  <JCHEM_ATOM_COUNT>  (1) 
22

>  <JCHEM_AVERAGE_POLARIZABILITY>  (1) 
24.78246841430543

>  <JCHEM_BIOAVAILABILITY>  (1) 
1

>  <JCHEM_DONOR_COUNT>  (1) 
0

>  <JCHEM_FORMAL_CHARGE>  (1) 
0

>  <JCHEM_GHOSE_FILTER>  (1) 
1

>  <JCHEM_IUPAC>  (1) 
5-(4-methoxyphenyl)-3H-1,2-dithiole-3-thione

>  <JCHEM_LOGP>  (1) 
3.2866038476666666

>  <JCHEM_MDDR_LIKE_RULE>  (1) 
0

>  <JCHEM_NUMBER_OF_RINGS>  (1) 
2

>  <JCHEM_PHYSIOLOGICAL_CHARGE>  (1) 
0

>  <JCHEM_PKA_STRONGEST_BASIC>  (1) 
-4.828975083439206

>  <JCHEM_POLAR_SURFACE_AREA>  (1) 
9.23

>  <JCHEM_REFRACTIVITY>  (1) 
70.15090000000001

>  <JCHEM_ROTATABLE_BOND_COUNT>  (1) 
2

>  <JCHEM_RULE_OF_FIVE>  (1) 
1

>  <JCHEM_TRADITIONAL_IUPAC>  (1) 
halpen

>  <JCHEM_VEBER_RULE>  (1) 
1

>  <MOLECULAR_WEIGHT>  (1) 
240.35

>  <PRODUCTS>  (1) 
Sialor; Sialor Tab 25mg; Sulfarlem Tab 12.5mg

>  <SMILES>  (1) 
COC1=CC=C(C=C1)C1=CC(=S)SS1

>  <SYNONYMS>  (1) 
Anetholtrithion

$$$$
