
     RDKit          2D

 40 42  0  0  0  0  0  0  0  0999 V2000
    0.1722   -2.1447    0.0000 C   0  0  0  0  0  0  0  0  0  0  0  0
    0.1722   -0.4946    0.0000 C   0  0  0  0  0  0  0  0  0  0  0  0
   -0.5521   -0.9072    0.0000 C   0  0  0  0  0  0  0  0  0  0  0  0
   -0.5521   -1.7322    0.0000 C   0  0  0  0  0  0  0  0  0  0  0  0
    0.8866   -0.9072    0.0000 C   0  0  0  0  0  0  0  0  0  0  0  0
    0.8866   -1.7322    0.0000 C   0  0  0  0  0  0  0  0  0  0  0  0
    1.6009   -2.1447    0.0000 C   0  0  0  0  0  0  0  0  0  0  0  0
    2.3153   -1.7322    0.0000 N   0  0  0  0  0  0  0  0  0  0  0  0
    2.3153   -0.9072    0.0000 C   0  0  0  0  0  0  0  0  0  0  0  0
    1.6009   -0.4946    0.0000 C   0  0  0  0  0  0  0  0  0  0  0  0
    1.6009    0.1665    0.0000 F   0  0  0  0  0  0  0  0  0  0  0  0
    0.1771    0.3322    0.0000 S   0  0  0  0  0  0  0  0  0  0  0  0
   -0.5363    0.7503    0.0000 N   0  0  0  0  0  0  0  0  0  0  0  0
   -1.2301    0.2938    0.0000 C   0  0  0  0  0  0  0  0  0  0  0  0
   -2.0183    0.5424    0.0000 C   0  0  0  0  0  0  0  0  0  0  0  0
   -0.4771    1.5787    0.0000 C   0  0  0  0  0  0  0  0  0  0  0  0
   -2.3153    1.3137    0.0000 C   0  0  0  0  0  0  0  0  0  0  0  0
   -1.0794    2.1447    0.0000 C   0  0  0  0  0  0  0  0  0  0  0  0
   -1.8974    2.0269    0.0000 N   0  0  0  0  0  0  0  0  0  0  0  0
    0.1387    1.8193    0.0000 C   0  0  0  0  0  0  0  0  0  0  0  0
    0.7517    0.6592    0.0000 O   0  0  0  0  0  0  0  0  0  0  0  0
    0.7477   -0.0017    0.0000 O   0  0  0  0  0  0  0  0  0  0  0  0
    0.0000    0.0000    0.0000 H   0  0  0  0  0  0  0  0  0  0  0  0
    0.0000    0.0000    0.0000 H   0  0  0  0  0  0  0  0  0  0  0  0
    0.0000    0.0000    0.0000 H   0  0  0  0  0  0  0  0  0  0  0  0
    0.0000    0.0000    0.0000 H   0  0  0  0  0  0  0  0  0  0  0  0
    0.0000    0.0000    0.0000 H   0  0  0  0  0  0  0  0  0  0  0  0
    0.0000    0.0000    0.0000 H   0  0  0  0  0  0  0  0  0  0  0  0
    0.0000    0.0000    0.0000 H   0  0  0  0  0  0  0  0  0  0  0  0
    0.0000    0.0000    0.0000 H   0  0  0  0  0  0  0  0  0  0  0  0
    0.0000    0.0000    0.0000 H   0  0  0  0  0  0  0  0  0  0  0  0
    0.0000    0.0000    0.0000 H   0  0  0  0  0  0  0  0  0  0  0  0
    0.0000    0.0000    0.0000 H   0  0  0  0  0  0  0  0  0  0  0  0
    0.0000    0.0000    0.0000 H   0  0  0  0  0  0  0  0  0  0  0  0
    0.0000    0.0000    0.0000 H   0  0  0  0  0  0  0  0  0  0  0  0
    0.0000    0.0000    0.0000 H   0  0  0  0  0  0  0  0  0  0  0  0
    0.0000    0.0000    0.0000 H   0  0  0  0  0  0  0  0  0  0  0  0
    0.0000    0.0000    0.0000 H   0  0  0  0  0  0  0  0  0  0  0  0
    0.0000    0.0000    0.0000 H   0  0  0  0  0  0  0  0  0  0  0  0
    0.0000    0.0000    0.0000 H   0  0  0  0  0  0  0  0  0  0  0  0
  1  6  2  0
  5  2  2  0
  2  3  1  0
  3  4  2  0
  4  1  1  0
  5  6  1  0
  6  7  1  0
  7  8  2  0
  8  9  1  0
  9 10  2  0
 10  5  1  0
 10 11  1  0
  2 12  1  0
 12 13  1  0
 13 14  1  0
 14 15  1  0
 13 16  1  0
 15 17  1  0
 16 18  1  0
 17 19  1  0
 18 19  1  0
 16 20  1  6
 12 21  2  0
 12 22  2  0
  1 23  1  0
  3 24  1  0
  4 25  1  0
  7 26  1  0
  9 27  1  0
 14 28  1  0
 14 29  1  0
 15 30  1  0
 15 31  1  0
 16 32  1  0
 17 33  1  0
 17 34  1  0
 18 35  1  0
 18 36  1  0
 19 37  1  0
 20 38  1  0
 20 39  1  0
 20 40  1  0
M  END
>  <ALOGPS_LOGP>  (1) 
0.72

>  <ALOGPS_LOGS>  (1) 
-3.03

>  <ALOGPS_SOLUBILITY>  (1) 
3.00e-01 g/l

>  <DATABASE_ID>  (1) 
DB13165

>  <DATABASE_NAME>  (1) 
drugbank

>  <DRUGBANK_ID>  (1) 
DB13165

>  <DRUG_GROUPS>  (1) 
approved

>  <EXACT_MASS>  (1) 
323.110376169

>  <FORMULA>  (1) 
C15H18FN3O2S

>  <GENERIC_NAME>  (1) 
Ripasudil

>  <INCHI_IDENTIFIER>  (1) 
InChI=1S/C15H18FN3O2S/c1-11-8-17-6-3-7-19(11)22(20,21)14-5-2-4-12-9-18-10-13(16)15(12)14/h2,4-5,9-11,17H,3,6-8H2,1H3/t11-/m0/s1

>  <INCHI_KEY>  (1) 
QSKQVZWVLOIIEV-NSHDSACASA-N

>  <JCHEM_ACCEPTOR_COUNT>  (1) 
4

>  <JCHEM_ATOM_COUNT>  (1) 
40

>  <JCHEM_AVERAGE_POLARIZABILITY>  (1) 
31.25479700495837

>  <JCHEM_BIOAVAILABILITY>  (1) 
1

>  <JCHEM_DONOR_COUNT>  (1) 
1

>  <JCHEM_FORMAL_CHARGE>  (1) 
0

>  <JCHEM_GHOSE_FILTER>  (1) 
1

>  <JCHEM_IUPAC>  (1) 
4-fluoro-5-{[(2S)-2-methyl-1,4-diazepan-1-yl]sulfonyl}isoquinoline

>  <JCHEM_LOGP>  (1) 
0.8817413883333332

>  <JCHEM_MDDR_LIKE_RULE>  (1) 
0

>  <JCHEM_NUMBER_OF_RINGS>  (1) 
3

>  <JCHEM_PHYSIOLOGICAL_CHARGE>  (1) 
1

>  <JCHEM_PKA_STRONGEST_BASIC>  (1) 
8.20426528356289

>  <JCHEM_POLAR_SURFACE_AREA>  (1) 
62.300000000000004

>  <JCHEM_REFRACTIVITY>  (1) 
82.55859999999998

>  <JCHEM_ROTATABLE_BOND_COUNT>  (1) 
1

>  <JCHEM_RULE_OF_FIVE>  (1) 
1

>  <JCHEM_TRADITIONAL_IUPAC>  (1) 
4-fluoro-5-[(2S)-2-methyl-1,4-diazepan-1-ylsulfonyl]isoquinoline

>  <JCHEM_VEBER_RULE>  (1) 
0

>  <MOLECULAR_WEIGHT>  (1) 
323.39

>  <SALTS>  (1) 
Ripasudil hydrochloride dihydrate

>  <SMILES>  (1) 
C[C@H]1CNCCCN1S(=O)(=O)C1=C2C(F)=CN=CC2=CC=C1

$$$$
