
     RDKit          2D

 19 20  0  0  0  0  0  0  0  0999 V2000
    0.3327    0.8250    0.0000 C   0  0  0  0  0  0  0  0  0  0  0  0
    1.0472    0.4125    0.0000 C   0  0  0  0  0  0  0  0  0  0  0  0
    0.3327   -0.8250    0.0000 C   0  0  0  0  0  0  0  0  0  0  0  0
   -0.3817   -0.4125    0.0000 C   0  0  0  0  0  0  0  0  0  0  0  0
   -0.3817    0.4125    0.0000 C   0  0  0  0  0  0  0  0  0  0  0  0
    1.0472   -0.4125    0.0000 C   0  0  0  0  0  0  0  0  0  0  0  0
    1.7617    1.6500    0.0000 O   0  0  0  0  0  0  0  0  0  0  0  0
    1.7617    0.8250    0.0000 C   0  0  0  0  0  0  0  0  0  0  0  0
    2.4762    0.4125    0.0000 O   0  0  0  0  0  0  0  0  0  0  0  0
   -1.1662   -0.6674    0.0000 O   0  0  0  0  0  0  0  0  0  0  0  0
   -1.1662    0.6674    0.0000 O   0  0  0  0  0  0  0  0  0  0  0  0
   -1.6512    0.0000    0.0000 Bi  0  0  0  0  0  0  0  0  0  0  0  0
   -2.4762    0.0000    0.0000 O   0  0  0  0  0  0  0  0  0  0  0  0
    0.3327   -1.6500    0.0000 O   0  0  0  0  0  0  0  0  0  0  0  0
    0.0000    0.0000    0.0000 H   0  0  0  0  0  0  0  0  0  0  0  0
    0.0000    0.0000    0.0000 H   0  0  0  0  0  0  0  0  0  0  0  0
    0.0000    0.0000    0.0000 H   0  0  0  0  0  0  0  0  0  0  0  0
    0.0000    0.0000    0.0000 H   0  0  0  0  0  0  0  0  0  0  0  0
    0.0000    0.0000    0.0000 H   0  0  0  0  0  0  0  0  0  0  0  0
  2  1  2  0
  2  8  1  0
  3 14  1  0
  3  4  1  0
  4 10  1  0
  4  5  2  0
  1  5  1  0
  5 11  1  0
  6  2  1  0
  6  3  2  0
  7  8  2  0
  8  9  1  0
 10 12  1  0
 11 12  1  0
 12 13  1  0
  1 15  1  0
  6 16  1  0
  9 17  1  0
 13 18  1  0
 14 19  1  0
M  END
>  <ALOGPS_LOGP>  (1) 
0.40

>  <ALOGPS_LOGS>  (1) 
-0.94

>  <ALOGPS_SOLUBILITY>  (1) 
4.48e+01 g/l

>  <DATABASE_ID>  (1) 
DB13909

>  <DATABASE_NAME>  (1) 
drugbank

>  <DRUGBANK_ID>  (1) 
DB13909

>  <DRUG_GROUPS>  (1) 
approved

>  <EXACT_MASS>  (1) 
393.98901

>  <FORMULA>  (1) 
C7H5BiO6

>  <GENERIC_NAME>  (1) 
Bismuth Subgallate

>  <INCHI_IDENTIFIER>  (1) 
InChI=1S/C7H6O5.Bi.H2O/c8-4-1-3(7(11)12)2-5(9)6(4)10;;/h1-2,8-10H,(H,11,12);;1H2/q;+3;/p-3

>  <INCHI_KEY>  (1) 
JAONZGLTYYUPCT-UHFFFAOYSA-K

>  <JCHEM_ACCEPTOR_COUNT>  (1) 
6

>  <JCHEM_ATOM_COUNT>  (1) 
19

>  <JCHEM_AVERAGE_POLARIZABILITY>  (1) 
17.896229041599298

>  <JCHEM_BIOAVAILABILITY>  (1) 
1

>  <JCHEM_DONOR_COUNT>  (1) 
3

>  <JCHEM_FORMAL_CHARGE>  (1) 
0

>  <JCHEM_GHOSE_FILTER>  (1) 
0

>  <JCHEM_IUPAC>  (1) 
2,7-dihydroxy-2H-benzo[d]1,3-dioxa-2-bismacyclopentane-5-carboxylic acid

>  <JCHEM_LOGP>  (1) 
0.5455

>  <JCHEM_MDDR_LIKE_RULE>  (1) 
0

>  <JCHEM_NUMBER_OF_RINGS>  (1) 
2

>  <JCHEM_PHYSIOLOGICAL_CHARGE>  (1) 
-1

>  <JCHEM_PKA>  (1) 
8.715512825307698

>  <JCHEM_PKA_STRONGEST_ACIDIC>  (1) 
3.933474243450633

>  <JCHEM_PKA_STRONGEST_BASIC>  (1) 
-2.330983206456448

>  <JCHEM_POLAR_SURFACE_AREA>  (1) 
96.22000000000001

>  <JCHEM_REFRACTIVITY>  (1) 
39.3927

>  <JCHEM_ROTATABLE_BOND_COUNT>  (1) 
1

>  <JCHEM_RULE_OF_FIVE>  (1) 
1

>  <JCHEM_TRADITIONAL_IUPAC>  (1) 
dermatol

>  <JCHEM_VEBER_RULE>  (1) 
0

>  <MOLECULAR_WEIGHT>  (1) 
394.091

>  <PRODUCTS>  (1) 
Devrom Chew Tab 200mg; Stomax - Tab 400mg

>  <SMILES>  (1) 
O[Bi]1OC2=CC(=CC(O)=C2O1)C(O)=O

>  <SYNONYMS>  (1) 
basic bismuth 3,4,5-trihydroxybenzoate; basisches Wismutgallat; gallic acid bismuth basic salt; Wismutgallathydroxid

$$$$
