
     RDKit          2D

 34 36  0  0  0  0  0  0  0  0999 V2000
    2.0548    1.1441    0.0000 Cl  0  0  0  0  0  0  0  0  0  0  0  0
    2.6596    1.7052    0.0000 C   0  0  0  0  0  0  0  0  0  0  0  0
    2.4760    2.5095    0.0000 C   0  0  0  0  0  0  0  0  0  0  0  0
    3.0808    3.0707    0.0000 C   0  0  0  0  0  0  0  0  0  0  0  0
    3.8691    2.8275    0.0000 C   0  0  0  0  0  0  0  0  0  0  0  0
    4.0527    2.0232    0.0000 C   0  0  0  0  0  0  0  0  0  0  0  0
    3.4479    1.4620    0.0000 C   0  0  0  0  0  0  0  0  0  0  0  0
    3.6315    0.6577    0.0000 C   0  0  0  0  0  0  0  0  0  0  0  0
    4.4358    0.4742    0.0000 N   0  0  0  0  0  0  0  0  0  0  0  0
    4.7938   -0.2691    0.0000 C   0  0  0  0  0  0  0  0  0  0  0  0
    5.6188   -0.2691    0.0000 O   0  0  0  0  0  0  0  0  0  0  0  0
    4.4358   -1.0124    0.0000 C   0  0  0  0  0  0  0  0  0  0  0  0
    4.9502   -1.6575    0.0000 O   0  0  0  0  0  0  0  0  0  0  0  0
    3.6315   -1.1960    0.0000 N   0  0  0  0  0  0  0  0  0  0  0  0
    2.9865   -0.6816    0.0000 C   0  0  0  0  0  0  0  0  0  0  0  0
    2.9865    0.1434    0.0000 C   0  0  0  0  0  0  0  0  0  0  0  0
    2.2720    0.5559    0.0000 C   0  0  0  0  0  0  0  0  0  0  0  0
    1.5575    0.1434    0.0000 C   0  0  0  0  0  0  0  0  0  0  0  0
    0.8431    0.5559    0.0000 Cl  0  0  0  0  0  0  0  0  0  0  0  0
    1.5575   -0.6816    0.0000 C   0  0  0  0  0  0  0  0  0  0  0  0
    2.2720   -1.0941    0.0000 C   0  0  0  0  0  0  0  0  0  0  0  0
    3.4479   -2.0003    0.0000 C   0  0  0  0  0  0  0  0  0  0  0  0
    0.0000    0.0000    0.0000 H   0  0  0  0  0  0  0  0  0  0  0  0
    0.0000    0.0000    0.0000 H   0  0  0  0  0  0  0  0  0  0  0  0
    0.0000    0.0000    0.0000 H   0  0  0  0  0  0  0  0  0  0  0  0
    0.0000    0.0000    0.0000 H   0  0  0  0  0  0  0  0  0  0  0  0
    0.0000    0.0000    0.0000 H   0  0  0  0  0  0  0  0  0  0  0  0
    0.0000    0.0000    0.0000 H   0  0  0  0  0  0  0  0  0  0  0  0
    0.0000    0.0000    0.0000 H   0  0  0  0  0  0  0  0  0  0  0  0
    0.0000    0.0000    0.0000 H   0  0  0  0  0  0  0  0  0  0  0  0
    0.0000    0.0000    0.0000 H   0  0  0  0  0  0  0  0  0  0  0  0
    0.0000    0.0000    0.0000 H   0  0  0  0  0  0  0  0  0  0  0  0
    0.0000    0.0000    0.0000 H   0  0  0  0  0  0  0  0  0  0  0  0
    0.0000    0.0000    0.0000 H   0  0  0  0  0  0  0  0  0  0  0  0
  1  2  1  0
  2  3  2  0
  3  4  1  0
  4  5  2  0
  5  6  1  0
  6  7  2  0
  2  7  1  0
  7  8  1  0
  8  9  2  0
  9 10  1  0
 10 11  1  0
 10 12  1  0
 12 13  2  0
 12 14  1  0
 14 15  1  0
 15 16  2  0
  8 16  1  0
 16 17  1  0
 17 18  2  0
 18 19  1  0
 18 20  1  0
 20 21  2  0
 15 21  1  0
 14 22  1  0
  3 23  1  0
  4 24  1  0
  5 25  1  0
  6 26  1  0
 10 27  1  0
 11 28  1  0
 17 29  1  0
 20 30  1  0
 21 31  1  0
 22 32  1  0
 22 33  1  0
 22 34  1  0
M  END
>  <ALOGPS_LOGP>  (1) 
2.92

>  <ALOGPS_LOGS>  (1) 
-4.31

>  <ALOGPS_SOLUBILITY>  (1) 
1.64e-02 g/l

>  <DATABASE_ID>  (1) 
DB13872

>  <DATABASE_NAME>  (1) 
drugbank

>  <DRUGBANK_ID>  (1) 
DB13872

>  <DRUG_GROUPS>  (1) 
approved

>  <EXACT_MASS>  (1) 
334.027583052

>  <FORMULA>  (1) 
C16H12Cl2N2O2

>  <GENERIC_NAME>  (1) 
Lormetazepam

>  <INCHI_IDENTIFIER>  (1) 
InChI=1S/C16H12Cl2N2O2/c1-20-13-7-6-9(17)8-11(13)14(19-15(21)16(20)22)10-4-2-3-5-12(10)18/h2-8,15,21H,1H3

>  <INCHI_KEY>  (1) 
FJIKWRGCXUCUIG-UHFFFAOYSA-N

>  <JCHEM_ACCEPTOR_COUNT>  (1) 
3

>  <JCHEM_AVERAGE_POLARIZABILITY>  (1) 
32.20718392747353

>  <JCHEM_BIOAVAILABILITY>  (1) 
1

>  <JCHEM_DONOR_COUNT>  (1) 
1

>  <JCHEM_FORMAL_CHARGE>  (1) 
0

>  <JCHEM_GHOSE_FILTER>  (1) 
1

>  <JCHEM_IUPAC>  (1) 
7-chloro-5-(2-chlorophenyl)-3-hydroxy-1-methyl-2,3-dihydro-1H-1,4-benzodiazepin-2-one

>  <JCHEM_LOGP>  (1) 
3.391391556666667

>  <JCHEM_MDDR_LIKE_RULE>  (1) 
0

>  <JCHEM_NUMBER_OF_RINGS>  (1) 
3

>  <JCHEM_PHYSIOLOGICAL_CHARGE>  (1) 
0

>  <JCHEM_PKA_STRONGEST_ACIDIC>  (1) 
10.676469443853929

>  <JCHEM_PKA_STRONGEST_BASIC>  (1) 
-2.156070814774956

>  <JCHEM_POLAR_SURFACE_AREA>  (1) 
52.900000000000006

>  <JCHEM_REFRACTIVITY>  (1) 
85.8151

>  <JCHEM_ROTATABLE_BOND_COUNT>  (1) 
1

>  <JCHEM_RULE_OF_FIVE>  (1) 
1

>  <JCHEM_TRADITIONAL_IUPAC>  (1) 
lormetazepam

>  <JCHEM_VEBER_RULE>  (1) 
0

>  <MOLECULAR_WEIGHT>  (1) 
335.185

>  <SMILES>  (1) 
CN1C2=C(C=C(Cl)C=C2)C(=NC(O)C1=O)C1=CC=CC=C1Cl

>  <SYNONYMS>  (1) 
(Â±)-Lormetazepam; (RS)-Lormetazepam; 7-Chloro-1,3-dihydro-5-(o-chlorophenyl)-3-hydroxy-1-methyl-2H-1,4-benzodiazepin-2-one; 7-Chloro-5-(2-chlorophenyl)-1,3-dihydro-3-hydroxy-1-methyl-2H-1,4-benzodiazepin-2-one; Methyllorazepam; N-Methyllorazepam

$$$$
