
     RDKit          2D

188192  0  0  0  0  0  0  0  0999 V2000
    3.5534   -5.4758    0.0000 C   0  0  0  0  0  0  0  0  0  0  0  0
    2.7545   -5.6421    0.0000 C   0  0  0  0  0  0  0  0  0  0  0  0
    2.2052   -5.0264    0.0000 C   0  0  0  0  0  0  0  0  0  0  0  0
    2.4549   -4.2440    0.0000 C   0  0  0  0  0  0  0  0  0  0  0  0
    3.2704   -4.0776    0.0000 O   0  0  0  0  0  0  0  0  0  0  0  0
    1.9056   -3.6283    0.0000 N   0  0  0  0  0  0  0  0  0  0  0  0
    2.1719   -2.8459    0.0000 C   0  0  0  0  0  0  0  0  0  0  0  0
    1.6228   -2.2302    0.0000 C   0  0  0  0  0  0  0  0  0  0  0  0
    0.8072   -2.3966    0.0000 S   0  0  0  0  0  0  0  0  0  0  0  0
    0.2579   -1.7808    0.0000 S   0  0  0  0  0  0  0  0  0  0  0  0
    0.5242   -0.9986    0.0000 C   0  0  0  0  0  0  0  0  0  0  0  0
   -0.0249   -0.3994    0.0000 C   0  0  0  0  0  0  0  0  0  0  0  0
   -0.8405   -0.5659    0.0000 C   0  0  0  0  0  0  0  0  0  0  0  0
   -1.3896    0.0498    0.0000 O   0  0  0  0  0  0  0  0  0  0  0  0
   -1.0902   -1.3480    0.0000 N   0  0  0  0  0  0  0  0  0  0  0  0
   -1.9056   -1.5146    0.0000 C   0  0  0  0  0  0  0  0  0  0  0  0
   -2.1553   -2.2967    0.0000 C   0  0  0  0  0  0  0  0  0  0  0  0
   -2.9543   -2.4632    0.0000 O   0  0  0  0  0  0  0  0  0  0  0  0
   -1.6061   -2.9126    0.0000 N   0  0  0  0  0  0  0  0  0  0  0  0
   -1.8557   -3.6949    0.0000 C   0  0  0  0  0  0  0  0  0  0  0  0
   -1.3065   -4.3106    0.0000 C   0  0  0  0  0  0  0  0  0  0  0  0
   -1.5728   -5.0929    0.0000 O   0  0  0  0  0  0  0  0  0  0  0  0
   -0.5076   -4.1276    0.0000 N   0  0  0  0  0  0  0  0  0  0  0  0
    0.0415   -4.7434    0.0000 C   0  0  0  0  0  0  0  0  0  0  0  0
    0.8405   -4.5770    0.0000 C   0  0  0  0  0  0  0  0  0  0  0  0
    1.1068   -3.7948    0.0000 O   0  0  0  0  0  0  0  0  0  0  0  0
    1.3896   -5.1927    0.0000 N   0  0  0  0  0  0  0  0  0  0  0  0
   -0.2079   -5.5257    0.0000 C   0  0  0  0  0  0  0  0  0  0  0  0
    0.3411   -6.1414    0.0000 C   0  0  0  0  0  0  0  0  0  0  0  0
    0.0749   -6.9237    0.0000 C   0  0  0  0  0  0  0  0  0  0  0  0
    0.6241   -7.5396    0.0000 C   0  0  0  0  0  0  0  0  0  0  0  0
    0.3744   -8.3217    0.0000 N   0  0  0  0  0  0  0  0  0  0  0  0
   -2.6713   -3.8613    0.0000 C   0  0  0  0  0  0  0  0  0  0  0  0
   -2.9209   -4.6435    0.0000 C   0  0  0  0  0  0  0  0  0  0  0  0
   -2.4382   -5.3092    0.0000 C   0  0  0  0  0  0  0  0  0  0  0  0
   -2.9209   -5.9750    0.0000 N   0  0  0  0  0  0  0  0  0  0  0  0
   -3.7198   -5.7087    0.0000 C   0  0  0  0  0  0  0  0  0  0  0  0
   -3.7032   -4.8931    0.0000 C   0  0  0  0  0  0  0  0  0  0  0  0
   -4.4188   -4.4771    0.0000 C   0  0  0  0  0  0  0  0  0  0  0  0
   -5.1345   -4.8766    0.0000 C   0  0  0  0  0  0  0  0  0  0  0  0
   -5.1345   -5.7087    0.0000 C   0  0  0  0  0  0  0  0  0  0  0  0
   -4.4188   -6.1248    0.0000 C   0  0  0  0  0  0  0  0  0  0  0  0
   -2.4382   -0.8987    0.0000 C   0  0  0  0  0  0  0  0  0  0  0  0
   -3.2537   -1.0651    0.0000 C   0  0  0  0  0  0  0  0  0  0  0  0
   -3.8030   -0.4492    0.0000 C   0  0  0  0  0  0  0  0  0  0  0  0
   -4.5852   -0.5992    0.0000 C   0  0  0  0  0  0  0  0  0  0  0  0
   -4.8682   -1.3980    0.0000 C   0  0  0  0  0  0  0  0  0  0  0  0
   -4.3356   -2.0138    0.0000 C   0  0  0  0  0  0  0  0  0  0  0  0
   -3.5035   -1.8308    0.0000 C   0  0  0  0  0  0  0  0  0  0  0  0
   -5.6838   -1.5478    0.0000 O   0  0  0  0  0  0  0  0  0  0  0  0
    0.2246    0.3828    0.0000 N   0  0  0  0  0  0  0  0  0  0  0  0
   -0.3245    0.9986    0.0000 C   0  0  0  0  0  0  0  0  0  0  0  0
   -1.1234    0.8321    0.0000 O   0  0  0  0  0  0  0  0  0  0  0  0
   -0.0749    1.7808    0.0000 C   0  0  0  0  0  0  0  0  0  0  0  0
    0.7406    1.9472    0.0000 C   0  0  0  0  0  0  0  0  0  0  0  0
    1.2898    1.3480    0.0000 C   0  0  0  0  0  0  0  0  0  0  0  0
    1.0235    0.5659    0.0000 C   0  0  0  0  0  0  0  0  0  0  0  0
    1.5728   -0.0498    0.0000 C   0  0  0  0  0  0  0  0  0  0  0  0
    2.3883    0.1164    0.0000 C   0  0  0  0  0  0  0  0  0  0  0  0
    2.6380    0.8987    0.0000 C   0  0  0  0  0  0  0  0  0  0  0  0
    2.0887    1.5146    0.0000 C   0  0  0  0  0  0  0  0  0  0  0  0
   -0.6241    2.3966    0.0000 N   0  0  0  0  0  0  0  0  0  0  0  0
   -0.3577    3.1789    0.0000 C   0  0  0  0  0  0  0  0  0  0  0  0
    0.4410    3.3452    0.0000 O   0  0  0  0  0  0  0  0  0  0  0  0
   -0.9071    3.7948    0.0000 C   0  0  0  0  0  0  0  0  0  0  0  0
   -0.6574    4.5770    0.0000 N   0  0  0  0  0  0  0  0  0  0  0  0
   -1.4562    4.4105    0.0000 C   0  0  0  0  0  0  0  0  0  0  0  0
   -1.7891    5.0762    0.0000 C   0  0  0  0  0  0  0  0  0  0  0  0
   -1.1732    5.6255    0.0000 N   0  0  0  0  0  0  0  0  0  0  0  0
   -1.3398    6.4243    0.0000 C   0  0  0  0  0  0  0  0  0  0  0  0
   -0.6907    6.7572    0.0000 C   0  0  0  0  0  0  0  0  0  0  0  0
   -0.1414    6.1414    0.0000 N   0  0  0  0  0  0  0  0  0  0  0  0
    0.6741    6.3079    0.0000 C   0  0  0  0  0  0  0  0  0  0  0  0
    1.0069    5.6588    0.0000 C   0  0  0  0  0  0  0  0  0  0  0  0
    0.3911    5.1095    0.0000 N   0  0  0  0  0  0  0  0  0  0  0  0
    0.5575    4.2939    0.0000 C   0  0  0  0  0  0  0  0  0  0  0  0
   -0.1081    3.9611    0.0000 C   0  0  0  0  0  0  0  0  0  0  0  0
    1.1732    4.8433    0.0000 C   0  0  0  0  0  0  0  0  0  0  0  0
    1.7891    5.3924    0.0000 C   0  0  0  0  0  0  0  0  0  0  0  0
    1.6228    6.2080    0.0000 O   0  0  0  0  0  0  0  0  0  0  0  0
    2.5714    5.1428    0.0000 O   0  0  0  0  0  0  0  0  0  0  0  0
    0.1247    6.9237    0.0000 C   0  0  0  0  0  0  0  0  0  0  0  0
   -0.4243    7.5396    0.0000 C   0  0  0  0  0  0  0  0  0  0  0  0
   -0.1747    8.3217    0.0000 O   0  0  0  0  0  0  0  0  0  0  0  0
   -1.2399    7.3730    0.0000 O   0  0  0  0  0  0  0  0  0  0  0  0
   -1.9556    5.8752    0.0000 C   0  0  0  0  0  0  0  0  0  0  0  0
   -2.5714    5.3258    0.0000 C   0  0  0  0  0  0  0  0  0  0  0  0
   -3.3536    5.5756    0.0000 O   0  0  0  0  0  0  0  0  0  0  0  0
   -2.4049    4.5271    0.0000 O   0  0  0  0  0  0  0  0  0  0  0  0
    2.9708   -2.6796    0.0000 C   0  0  0  0  0  0  0  0  0  0  0  0
    3.2204   -1.8973    0.0000 O   0  0  0  0  0  0  0  0  0  0  0  0
    3.5201   -3.2954    0.0000 N   0  0  0  0  0  0  0  0  0  0  0  0
    4.3190   -3.1289    0.0000 C   0  0  0  0  0  0  0  0  0  0  0  0
    4.8682   -3.7447    0.0000 C   0  0  0  0  0  0  0  0  0  0  0  0
    5.6838   -3.5617    0.0000 C   0  0  0  0  0  0  0  0  0  0  0  0
    4.6186   -4.5271    0.0000 O   0  0  0  0  0  0  0  0  0  0  0  0
    4.5852   -2.3467    0.0000 C   0  0  0  0  0  0  0  0  0  0  0  0
    4.0360   -1.7309    0.0000 O   0  0  0  0  0  0  0  0  0  0  0  0
    5.3841   -2.1803    0.0000 O   0  0  0  0  0  0  0  0  0  0  0  0
    2.4883   -6.4243    0.0000 O   0  0  0  0  0  0  0  0  0  0  0  0
    2.1719    7.2898    0.0000 Ga  0  0  0  0  0  0  0  0  0  0  0  0
    0.0000    0.0000    0.0000 H   0  0  0  0  0  0  0  0  0  0  0  0
    0.0000    0.0000    0.0000 H   0  0  0  0  0  0  0  0  0  0  0  0
    0.0000    0.0000    0.0000 H   0  0  0  0  0  0  0  0  0  0  0  0
    0.0000    0.0000    0.0000 H   0  0  0  0  0  0  0  0  0  0  0  0
    0.0000    0.0000    0.0000 H   0  0  0  0  0  0  0  0  0  0  0  0
    0.0000    0.0000    0.0000 H   0  0  0  0  0  0  0  0  0  0  0  0
    0.0000    0.0000    0.0000 H   0  0  0  0  0  0  0  0  0  0  0  0
    0.0000    0.0000    0.0000 H   0  0  0  0  0  0  0  0  0  0  0  0
    0.0000    0.0000    0.0000 H   0  0  0  0  0  0  0  0  0  0  0  0
    0.0000    0.0000    0.0000 H   0  0  0  0  0  0  0  0  0  0  0  0
    0.0000    0.0000    0.0000 H   0  0  0  0  0  0  0  0  0  0  0  0
    0.0000    0.0000    0.0000 H   0  0  0  0  0  0  0  0  0  0  0  0
    0.0000    0.0000    0.0000 H   0  0  0  0  0  0  0  0  0  0  0  0
    0.0000    0.0000    0.0000 H   0  0  0  0  0  0  0  0  0  0  0  0
    0.0000    0.0000    0.0000 H   0  0  0  0  0  0  0  0  0  0  0  0
    0.0000    0.0000    0.0000 H   0  0  0  0  0  0  0  0  0  0  0  0
    0.0000    0.0000    0.0000 H   0  0  0  0  0  0  0  0  0  0  0  0
    0.0000    0.0000    0.0000 H   0  0  0  0  0  0  0  0  0  0  0  0
    0.0000    0.0000    0.0000 H   0  0  0  0  0  0  0  0  0  0  0  0
    0.0000    0.0000    0.0000 H   0  0  0  0  0  0  0  0  0  0  0  0
    0.0000    0.0000    0.0000 H   0  0  0  0  0  0  0  0  0  0  0  0
    0.0000    0.0000    0.0000 H   0  0  0  0  0  0  0  0  0  0  0  0
    0.0000    0.0000    0.0000 H   0  0  0  0  0  0  0  0  0  0  0  0
    0.0000    0.0000    0.0000 H   0  0  0  0  0  0  0  0  0  0  0  0
    0.0000    0.0000    0.0000 H   0  0  0  0  0  0  0  0  0  0  0  0
    0.0000    0.0000    0.0000 H   0  0  0  0  0  0  0  0  0  0  0  0
    0.0000    0.0000    0.0000 H   0  0  0  0  0  0  0  0  0  0  0  0
    0.0000    0.0000    0.0000 H   0  0  0  0  0  0  0  0  0  0  0  0
    0.0000    0.0000    0.0000 H   0  0  0  0  0  0  0  0  0  0  0  0
    0.0000    0.0000    0.0000 H   0  0  0  0  0  0  0  0  0  0  0  0
    0.0000    0.0000    0.0000 H   0  0  0  0  0  0  0  0  0  0  0  0
    0.0000    0.0000    0.0000 H   0  0  0  0  0  0  0  0  0  0  0  0
    0.0000    0.0000    0.0000 H   0  0  0  0  0  0  0  0  0  0  0  0
    0.0000    0.0000    0.0000 H   0  0  0  0  0  0  0  0  0  0  0  0
    0.0000    0.0000    0.0000 H   0  0  0  0  0  0  0  0  0  0  0  0
    0.0000    0.0000    0.0000 H   0  0  0  0  0  0  0  0  0  0  0  0
    0.0000    0.0000    0.0000 H   0  0  0  0  0  0  0  0  0  0  0  0
    0.0000    0.0000    0.0000 H   0  0  0  0  0  0  0  0  0  0  0  0
    0.0000    0.0000    0.0000 H   0  0  0  0  0  0  0  0  0  0  0  0
    0.0000    0.0000    0.0000 H   0  0  0  0  0  0  0  0  0  0  0  0
    0.0000    0.0000    0.0000 H   0  0  0  0  0  0  0  0  0  0  0  0
    0.0000    0.0000    0.0000 H   0  0  0  0  0  0  0  0  0  0  0  0
    0.0000    0.0000    0.0000 H   0  0  0  0  0  0  0  0  0  0  0  0
    0.0000    0.0000    0.0000 H   0  0  0  0  0  0  0  0  0  0  0  0
    0.0000    0.0000    0.0000 H   0  0  0  0  0  0  0  0  0  0  0  0
    0.0000    0.0000    0.0000 H   0  0  0  0  0  0  0  0  0  0  0  0
    0.0000    0.0000    0.0000 H   0  0  0  0  0  0  0  0  0  0  0  0
    0.0000    0.0000    0.0000 H   0  0  0  0  0  0  0  0  0  0  0  0
    0.0000    0.0000    0.0000 H   0  0  0  0  0  0  0  0  0  0  0  0
    0.0000    0.0000    0.0000 H   0  0  0  0  0  0  0  0  0  0  0  0
    0.0000    0.0000    0.0000 H   0  0  0  0  0  0  0  0  0  0  0  0
    0.0000    0.0000    0.0000 H   0  0  0  0  0  0  0  0  0  0  0  0
    0.0000    0.0000    0.0000 H   0  0  0  0  0  0  0  0  0  0  0  0
    0.0000    0.0000    0.0000 H   0  0  0  0  0  0  0  0  0  0  0  0
    0.0000    0.0000    0.0000 H   0  0  0  0  0  0  0  0  0  0  0  0
    0.0000    0.0000    0.0000 H   0  0  0  0  0  0  0  0  0  0  0  0
    0.0000    0.0000    0.0000 H   0  0  0  0  0  0  0  0  0  0  0  0
    0.0000    0.0000    0.0000 H   0  0  0  0  0  0  0  0  0  0  0  0
    0.0000    0.0000    0.0000 H   0  0  0  0  0  0  0  0  0  0  0  0
    0.0000    0.0000    0.0000 H   0  0  0  0  0  0  0  0  0  0  0  0
    0.0000    0.0000    0.0000 H   0  0  0  0  0  0  0  0  0  0  0  0
    0.0000    0.0000    0.0000 H   0  0  0  0  0  0  0  0  0  0  0  0
    0.0000    0.0000    0.0000 H   0  0  0  0  0  0  0  0  0  0  0  0
    0.0000    0.0000    0.0000 H   0  0  0  0  0  0  0  0  0  0  0  0
    0.0000    0.0000    0.0000 H   0  0  0  0  0  0  0  0  0  0  0  0
    0.0000    0.0000    0.0000 H   0  0  0  0  0  0  0  0  0  0  0  0
    0.0000    0.0000    0.0000 H   0  0  0  0  0  0  0  0  0  0  0  0
    0.0000    0.0000    0.0000 H   0  0  0  0  0  0  0  0  0  0  0  0
    0.0000    0.0000    0.0000 H   0  0  0  0  0  0  0  0  0  0  0  0
    0.0000    0.0000    0.0000 H   0  0  0  0  0  0  0  0  0  0  0  0
    0.0000    0.0000    0.0000 H   0  0  0  0  0  0  0  0  0  0  0  0
    0.0000    0.0000    0.0000 H   0  0  0  0  0  0  0  0  0  0  0  0
    0.0000    0.0000    0.0000 H   0  0  0  0  0  0  0  0  0  0  0  0
    0.0000    0.0000    0.0000 H   0  0  0  0  0  0  0  0  0  0  0  0
    0.0000    0.0000    0.0000 H   0  0  0  0  0  0  0  0  0  0  0  0
    0.0000    0.0000    0.0000 H   0  0  0  0  0  0  0  0  0  0  0  0
    0.0000    0.0000    0.0000 H   0  0  0  0  0  0  0  0  0  0  0  0
    0.0000    0.0000    0.0000 H   0  0  0  0  0  0  0  0  0  0  0  0
    0.0000    0.0000    0.0000 H   0  0  0  0  0  0  0  0  0  0  0  0
    0.0000    0.0000    0.0000 H   0  0  0  0  0  0  0  0  0  0  0  0
    0.0000    0.0000    0.0000 H   0  0  0  0  0  0  0  0  0  0  0  0
    0.0000    0.0000    0.0000 H   0  0  0  0  0  0  0  0  0  0  0  0
    0.0000    0.0000    0.0000 H   0  0  0  0  0  0  0  0  0  0  0  0
    0.0000    0.0000    0.0000 H   0  0  0  0  0  0  0  0  0  0  0  0
    0.0000    0.0000    0.0000 H   0  0  0  0  0  0  0  0  0  0  0  0
    0.0000    0.0000    0.0000 H   0  0  0  0  0  0  0  0  0  0  0  0
    0.0000    0.0000    0.0000 H   0  0  0  0  0  0  0  0  0  0  0  0
  2  1  1  1
  2  3  1  0
  2100  1  0
  3  4  1  0
  3 27  1  0
  4  5  2  0
  4  6  1  0
  6  7  1  0
  7  8  1  0
  7 90  1  1
  8  9  1  0
  9 10  1  0
 10 11  1  0
 11 12  1  0
 12 13  1  0
 12 51  1  1
 13 14  2  0
 13 15  1  0
 15 16  1  0
 16 17  1  0
 16 43  1  6
 17 18  2  0
 17 19  1  0
 19 20  1  0
 20 21  1  0
 20 33  1  6
 21 22  2  0
 21 23  1  0
 23 24  1  0
 24 25  1  0
 24 28  1  1
 25 26  2  0
 25 27  1  0
 28 29  1  0
 29 30  1  0
 30 31  1  0
 31 32  1  0
 33 34  1  0
 34 35  2  0
 34 38  1  0
 35 36  1  0
 36 37  1  0
 37 38  2  0
 37 42  1  0
 38 39  1  0
 39 40  2  0
 40 41  1  0
 41 42  2  0
 43 44  1  0
 44 45  2  0
 44 49  1  0
 45 46  1  0
 46 47  2  0
 47 48  1  0
 47 50  1  0
 48 49  2  0
 51 52  1  0
 52 53  2  0
 54 52  1  6
 54 55  1  0
 54 62  1  0
 55 56  1  0
 56 57  2  0
 56 61  1  0
 57 58  1  0
 58 59  2  0
 59 60  1  0
 60 61  2  0
 62 63  1  0
 63 64  2  0
 63 65  1  0
 65 66  1  0
 66 67  1  0
 66 77  1  0
 67 68  1  0
 68 69  1  0
 69 70  1  0
 69 86  1  0
 70 71  1  0
 71 72  1  0
 72 73  1  0
 72 82  1  0
 73 74  1  0
 74 75  1  0
 75 76  1  0
 75 78  1  0
 76 77  1  0
 78 79  1  0
 79 80  2  0
 79 81  1  0
 82 83  1  0
 83 84  2  0
 83 85  1  0
 86 87  1  0
 87 88  2  0
 87 89  1  0
 90 91  2  0
 90 92  1  0
 93 92  1  6
 93 94  1  0
 93 97  1  0
 94 95  1  6
 94 96  1  0
 97 98  2  0
 97 99  1  0
  1102  1  0
  1103  1  0
  1104  1  0
  2105  1  0
  3106  1  1
  6107  1  0
  7108  1  0
  8109  1  0
  8110  1  0
 11111  1  0
 11112  1  0
 12113  1  0
 15114  1  0
 16115  1  0
 19116  1  0
 20117  1  0
 23118  1  0
 24119  1  0
 27120  1  0
 28121  1  0
 28122  1  0
 29123  1  0
 29124  1  0
 30125  1  0
 30126  1  0
 31127  1  0
 31128  1  0
 32129  1  0
 32130  1  0
 33131  1  0
 33132  1  0
 35133  1  0
 36134  1  0
 39135  1  0
 40136  1  0
 41137  1  0
 42138  1  0
 43139  1  0
 43140  1  0
 45141  1  0
 46142  1  0
 48143  1  0
 49144  1  0
 50145  1  0
 51146  1  0
 54147  1  0
 55148  1  0
 55149  1  0
 57150  1  0
 58151  1  0
 59152  1  0
 60153  1  0
 61154  1  0
 62155  1  0
 65156  1  0
 65157  1  0
 67158  1  0
 67159  1  0
 68160  1  0
 68161  1  0
 70162  1  0
 70163  1  0
 71164  1  0
 71165  1  0
 73166  1  0
 73167  1  0
 74168  1  0
 74169  1  0
 76170  1  0
 76171  1  0
 77172  1  0
 77173  1  0
 78174  1  0
 78175  1  0
 82176  1  0
 82177  1  0
 86178  1  0
 86179  1  0
 92180  1  0
 93181  1  0
 94182  1  0
 95183  1  0
 95184  1  0
 95185  1  0
 96186  1  0
 99187  1  0
100188  1  0
M  CHG  4  81  -1  85  -1  89  -1 101   3
M  END
>  <ALOGPS_LOGP>  (1) 
-0.99

>  <ALOGPS_LOGS>  (1) 
-4.37

>  <ALOGPS_SOLUBILITY>  (1) 
6.80e-02 g/l

>  <DATABASE_ID>  (1) 
DB13925

>  <DATABASE_NAME>  (1) 
drugbank

>  <DRUGBANK_ID>  (1) 
DB13925

>  <DRUG_GROUPS>  (1) 
approved; investigational

>  <EXACT_MASS>  (1) 
1500.496908

>  <FORMULA>  (1) 
C65H87GaN14O19S2

>  <GENERIC_NAME>  (1) 
Dotatate gallium Ga-68

>  <INCHI_IDENTIFIER>  (1) 
InChI=1S/C65H90N14O19S2.Ga/c1-38(80)56-64(96)73-51(63(95)75-57(39(2)81)65(97)98)37-100-99-36-50(72-59(91)47(28-40-10-4-3-5-11-40)68-52(83)32-76-20-22-77(33-53(84)85)24-26-79(35-55(88)89)27-25-78(23-21-76)34-54(86)87)62(94)70-48(29-41-15-17-43(82)18-16-41)60(92)71-49(30-42-31-67-45-13-7-6-12-44(42)45)61(93)69-46(58(90)74-56)14-8-9-19-66;/h3-7,10-13,15-18,31,38-39,46-51,56-57,67,80-82H,8-9,14,19-30,32-37,66H2,1-2H3,(H,68,83)(H,69,93)(H,70,94)(H,71,92)(H,72,91)(H,73,96)(H,74,90)(H,75,95)(H,84,85)(H,86,87)(H,88,89)(H,97,98);/q;+3/p-3/t38-,39-,46+,47-,48+,49-,50+,51+,56+,57+;/m1./s1

>  <INCHI_KEY>  (1) 
XBJPSVQFCQFGDC-UZOALHFESA-K

>  <JCHEM_ACCEPTOR_COUNT>  (1) 
24

>  <JCHEM_ATOM_COUNT>  (1) 
188

>  <JCHEM_AVERAGE_POLARIZABILITY>  (1) 
143.5239660040301

>  <JCHEM_BIOAVAILABILITY>  (1) 
0

>  <JCHEM_DONOR_COUNT>  (1) 
14

>  <JCHEM_FORMAL_CHARGE>  (1) 
0

>  <JCHEM_GHOSE_FILTER>  (1) 
0

>  <JCHEM_IUPAC>  (1) 
gallium(3+) 2-[4-({[(1R)-1-{[(4R,7S,10S,13R,16S,19R)-10-(4-aminobutyl)-4-{[(1S,2R)-1-carboxy-2-hydroxypropyl]carbamoyl}-7-[(1R)-1-hydroxyethyl]-16-[(4-hydroxyphenyl)methyl]-13-[(1H-indol-3-yl)methyl]-6,9,12,15,18-pentaoxo-1,2-dithia-5,8,11,14,17-pentaazacycloicosan-19-yl]carbamoyl}-2-phenylethyl]carbamoyl}methyl)-7,10-bis(carboxymethyl)-1,4,7,10-tetraazacyclododecan-1-yl]acetate

>  <JCHEM_LOGP>  (1) 
-8.679016202328581

>  <JCHEM_MDDR_LIKE_RULE>  (1) 
1

>  <JCHEM_NUMBER_OF_RINGS>  (1) 
6

>  <JCHEM_PHYSIOLOGICAL_CHARGE>  (1) 
-1

>  <JCHEM_PKA>  (1) 
2.7353804577826883

>  <JCHEM_PKA_STRONGEST_ACIDIC>  (1) 
1.3207429440220917

>  <JCHEM_PKA_STRONGEST_BASIC>  (1) 
10.289361167890553

>  <JCHEM_POLAR_SURFACE_AREA>  (1) 
505.95000000000005

>  <JCHEM_REFRACTIVITY>  (1) 
397.34409999999997

>  <JCHEM_ROTATABLE_BOND_COUNT>  (1) 
26

>  <JCHEM_RULE_OF_FIVE>  (1) 
0

>  <JCHEM_TRADITIONAL_IUPAC>  (1) 
gallium(3+) [4-({[(1R)-1-{[(4R,7S,10S,13R,16S,19R)-10-(4-aminobutyl)-4-{[(1S,2R)-1-carboxy-2-hydroxypropyl]carbamoyl}-7-[(1R)-1-hydroxyethyl]-16-[(4-hydroxyphenyl)methyl]-13-(1H-indol-3-ylmethyl)-6,9,12,15,18-pentaoxo-1,2-dithia-5,8,11,14,17-pentaazacycloicosan-19-yl]carbamoyl}-2-phenylethyl]carbamoyl}methyl)-7,10-bis(carboxymethyl)-1,4,7,10-tetraazacyclododecan-1-yl]acetate

>  <JCHEM_VEBER_RULE>  (1) 
0

>  <MOLECULAR_WEIGHT>  (1) 
1502.33

>  <SMILES>  (1) 
[Ga+3].C[C@@H](O)[C@H](NC(=O)[C@@H]1CSSC[C@H](NC(=O)[C@@H](CC2=CC=CC=C2)NC(=O)CN2CCN(CC([O-])=O)CCN(CC([O-])=O)CCN(CC([O-])=O)CC2)C(=O)N[C@@H](CC2=CC=C(O)C=C2)C(=O)N[C@H](CC2=CNC3=C2C=CC=C3)C(=O)N[C@@H](CCCCN)C(=O)N[C@@H]([C@@H](C)O)C(=O)N1)C(O)=O

>  <SYNONYMS>  (1) 
(68Ga)Gallium dotatate; 68Ga-DOTATATE; DOTA-octreotate gallium Ga-68; Dotatate gallium Ga-68; Gallium (68Ga) DOTA-tate; Gallium (68Ga) dotatate; Gallium (Ga 68) dotatate; Gallium 68 dotatate; Gallium dotatate, Ga-68; Gallium oxodotreotide Ga-68; Gallium-DOTA-octreotate Ga-68; Gallium-DOTA-octreotate, Ga-68; Gatate

$$$$
