
     RDKit          2D

 50 52  0  0  0  0  0  0  0  0999 V2000
    1.9710   -2.6179    0.0000 C   0  0  0  0  0  0  0  0  0  0  0  0
    2.6917   -2.2098    0.0000 C   0  0  0  0  0  0  0  0  0  0  0  0
    3.4037   -1.7930    0.0000 O   0  0  0  0  0  0  0  0  0  0  0  0
    3.0998   -2.9217    0.0000 C   0  0  0  0  0  0  0  0  0  0  0  0
    2.2749   -1.4891    0.0000 C   0  0  0  0  0  0  0  0  0  0  0  0
    1.4500   -1.4891    0.0000 N   0  0  0  0  0  0  0  0  0  0  0  0
    1.0332   -0.7771    0.0000 C   0  0  0  0  0  0  0  0  0  0  0  0
    1.4500   -0.0564    0.0000 N   0  0  0  0  0  0  0  0  0  0  0  0
    1.0332    0.6555    0.0000 C   0  0  0  0  0  0  0  0  0  0  0  0
    1.4500    1.3762    0.0000 C   0  0  0  0  0  0  0  0  0  0  0  0
    2.2749    1.3762    0.0000 N   0  0  0  0  0  0  0  0  0  0  0  0
    2.6917    2.0882    0.0000 C   0  0  0  0  0  0  0  0  0  0  0  0
    3.5165    2.0882    0.0000 C   0  0  0  0  0  0  0  0  0  0  0  0
    3.5165    1.2633    0.0000 F   0  0  0  0  0  0  0  0  0  0  0  0
    3.5165    2.9217    0.0000 F   0  0  0  0  0  0  0  0  0  0  0  0
    4.3414    2.0882    0.0000 F   0  0  0  0  0  0  0  0  0  0  0  0
    2.2749    2.8089    0.0000 C   0  0  0  0  0  0  0  0  0  0  0  0
    1.4500    2.8089    0.0000 C   0  0  0  0  0  0  0  0  0  0  0  0
    1.0332    2.0882    0.0000 C   0  0  0  0  0  0  0  0  0  0  0  0
    0.2083    0.6555    0.0000 N   0  0  0  0  0  0  0  0  0  0  0  0
   -0.2083   -0.0564    0.0000 C   0  0  0  0  0  0  0  0  0  0  0  0
   -1.0332   -0.0564    0.0000 N   0  0  0  0  0  0  0  0  0  0  0  0
   -1.4500   -0.7771    0.0000 C   0  0  0  0  0  0  0  0  0  0  0  0
   -2.2748   -0.7771    0.0000 C   0  0  0  0  0  0  0  0  0  0  0  0
   -2.6916   -1.4891    0.0000 C   0  0  0  0  0  0  0  0  0  0  0  0
   -3.5165   -1.4891    0.0000 C   0  0  0  0  0  0  0  0  0  0  0  0
   -3.5165   -0.6642    0.0000 F   0  0  0  0  0  0  0  0  0  0  0  0
   -3.5165   -2.3140    0.0000 F   0  0  0  0  0  0  0  0  0  0  0  0
   -4.3414   -1.4891    0.0000 F   0  0  0  0  0  0  0  0  0  0  0  0
   -2.2748   -2.2098    0.0000 N   0  0  0  0  0  0  0  0  0  0  0  0
   -1.4500   -2.2098    0.0000 C   0  0  0  0  0  0  0  0  0  0  0  0
   -1.0332   -1.4891    0.0000 C   0  0  0  0  0  0  0  0  0  0  0  0
    0.2083   -0.7771    0.0000 N   0  0  0  0  0  0  0  0  0  0  0  0
    0.0000    0.0000    0.0000 H   0  0  0  0  0  0  0  0  0  0  0  0
    0.0000    0.0000    0.0000 H   0  0  0  0  0  0  0  0  0  0  0  0
    0.0000    0.0000    0.0000 H   0  0  0  0  0  0  0  0  0  0  0  0
    0.0000    0.0000    0.0000 H   0  0  0  0  0  0  0  0  0  0  0  0
    0.0000    0.0000    0.0000 H   0  0  0  0  0  0  0  0  0  0  0  0
    0.0000    0.0000    0.0000 H   0  0  0  0  0  0  0  0  0  0  0  0
    0.0000    0.0000    0.0000 H   0  0  0  0  0  0  0  0  0  0  0  0
    0.0000    0.0000    0.0000 H   0  0  0  0  0  0  0  0  0  0  0  0
    0.0000    0.0000    0.0000 H   0  0  0  0  0  0  0  0  0  0  0  0
    0.0000    0.0000    0.0000 H   0  0  0  0  0  0  0  0  0  0  0  0
    0.0000    0.0000    0.0000 H   0  0  0  0  0  0  0  0  0  0  0  0
    0.0000    0.0000    0.0000 H   0  0  0  0  0  0  0  0  0  0  0  0
    0.0000    0.0000    0.0000 H   0  0  0  0  0  0  0  0  0  0  0  0
    0.0000    0.0000    0.0000 H   0  0  0  0  0  0  0  0  0  0  0  0
    0.0000    0.0000    0.0000 H   0  0  0  0  0  0  0  0  0  0  0  0
    0.0000    0.0000    0.0000 H   0  0  0  0  0  0  0  0  0  0  0  0
    0.0000    0.0000    0.0000 H   0  0  0  0  0  0  0  0  0  0  0  0
  1  2  1  0
  2  3  1  0
  2  4  1  0
  2  5  1  0
  5  6  1  0
  6  7  1  0
  7  8  2  0
  7 33  1  0
  8  9  1  0
  9 10  1  0
  9 20  2  0
 10 11  2  0
 10 19  1  0
 11 12  1  0
 12 13  1  0
 12 17  2  0
 13 14  1  0
 13 15  1  0
 13 16  1  0
 17 18  1  0
 18 19  2  0
 20 21  1  0
 21 22  1  0
 21 33  2  0
 22 23  1  0
 23 24  2  0
 23 32  1  0
 24 25  1  0
 25 26  1  0
 25 30  2  0
 26 27  1  0
 26 28  1  0
 26 29  1  0
 30 31  1  0
 31 32  2  0
  1 34  1  0
  1 35  1  0
  1 36  1  0
  3 37  1  0
  4 38  1  0
  4 39  1  0
  4 40  1  0
  5 41  1  0
  5 42  1  0
  6 43  1  0
 17 44  1  0
 18 45  1  0
 19 46  1  0
 22 47  1  0
 24 48  1  0
 31 49  1  0
 32 50  1  0
M  END
>  <ALOGPS_LOGP>  (1) 
4.25

>  <ALOGPS_LOGS>  (1) 
-4.11

>  <ALOGPS_SOLUBILITY>  (1) 
3.66e-02 g/l

>  <DATABASE_ID>  (1) 
DB13874

>  <DATABASE_NAME>  (1) 
drugbank

>  <DRUGBANK_ID>  (1) 
DB13874

>  <DRUG_GROUPS>  (1) 
approved

>  <EXACT_MASS>  (1) 
473.139877173

>  <FORMULA>  (1) 
C19H17F6N7O

>  <GENERIC_NAME>  (1) 
Enasidenib

>  <INCHI_IDENTIFIER>  (1) 
InChI=1S/C19H17F6N7O/c1-17(2,33)9-27-15-30-14(11-4-3-5-12(29-11)18(20,21)22)31-16(32-15)28-10-6-7-26-13(8-10)19(23,24)25/h3-8,33H,9H2,1-2H3,(H2,26,27,28,30,31,32)

>  <INCHI_KEY>  (1) 
DYLUUSLLRIQKOE-UHFFFAOYSA-N

>  <JCHEM_ACCEPTOR_COUNT>  (1) 
8

>  <JCHEM_ATOM_COUNT>  (1) 
50

>  <JCHEM_AVERAGE_POLARIZABILITY>  (1) 
41.40651764354215

>  <JCHEM_BIOAVAILABILITY>  (1) 
1

>  <JCHEM_DONOR_COUNT>  (1) 
3

>  <JCHEM_FORMAL_CHARGE>  (1) 
0

>  <JCHEM_GHOSE_FILTER>  (1) 
1

>  <JCHEM_IUPAC>  (1) 
2-methyl-1-({4-[6-(trifluoromethyl)pyridin-2-yl]-6-{[2-(trifluoromethyl)pyridin-4-yl]amino}-1,3,5-triazin-2-yl}amino)propan-2-ol

>  <JCHEM_LOGP>  (1) 
4.586206418333333

>  <JCHEM_MDDR_LIKE_RULE>  (1) 
1

>  <JCHEM_NUMBER_OF_RINGS>  (1) 
3

>  <JCHEM_PHYSIOLOGICAL_CHARGE>  (1) 
0

>  <JCHEM_PKA>  (1) 
14.293808546973825

>  <JCHEM_PKA_STRONGEST_ACIDIC>  (1) 
11.370991498413542

>  <JCHEM_PKA_STRONGEST_BASIC>  (1) 
3.8184734117347268

>  <JCHEM_POLAR_SURFACE_AREA>  (1) 
108.74000000000001

>  <JCHEM_REFRACTIVITY>  (1) 
118.37160000000003

>  <JCHEM_ROTATABLE_BOND_COUNT>  (1) 
8

>  <JCHEM_RULE_OF_FIVE>  (1) 
1

>  <JCHEM_TRADITIONAL_IUPAC>  (1) 
2-methyl-1-({4-[6-(trifluoromethyl)pyridin-2-yl]-6-{[2-(trifluoromethyl)pyridin-4-yl]amino}-1,3,5-triazin-2-yl}amino)propan-2-ol

>  <JCHEM_VEBER_RULE>  (1) 
0

>  <MOLECULAR_WEIGHT>  (1) 
473.383

>  <PRODUCTS>  (1) 
Idhifa

>  <SALTS>  (1) 
Enasidenib mesylate

>  <SMILES>  (1) 
CC(C)(O)CNC1=NC(=NC(NC2=CC(=NC=C2)C(F)(F)F)=N1)C1=NC(=CC=C1)C(F)(F)F

>  <SYNONYMS>  (1) 
2-Methyl-1-(4-(6-(trifluoromethyl)pyridin-2-yl)-6-(2-(trifluoromethyl)pyridin-4-ylamino)-1,3,5-triazin-2-ylamino)propan-2-ol

$$$$
